<nodes>
	<node id="3437422838" x="557837.2457" y="4589029.7690" z="0.0000" type="priority" />
	<node id="1438512823" x="558130.0283" y="4589126.0568" z="0.0000" type="priority" />
	<node id="3437422836" x="557846.2175" y="4588977.5141" z="0.0000" type="priority" />
	<node id="1438512701" x="558118.0846" y="4589107.2084" z="0.0000" type="priority" />
	<node id="3437422837" x="557673.9253" y="4589064.1369" z="0.0000" type="priority" />
	<node id="1438512703" x="558162.7115" y="4589318.4177" z="0.0000" type="priority" />
	<node id="3437422835" x="557853.4641" y="4589018.7295" z="0.0000" type="priority" />
	<node id="1438512706" x="558062.2612" y="4589271.4454" z="0.0000" type="priority" />
	<node id="1438512827" x="558114.9782" y="4589114.3558" z="0.0000" type="priority" />
	<node id="3437422833" x="557818.9756" y="4589022.6615" z="0.0000" type="priority" />
	<node id="3437422830" x="558026.6926" y="4588976.1404" z="0.0000" type="priority" />
	<node id="3437422831" x="557857.0882" y="4589020.9680" z="0.0000" type="priority" />
	<node id="262728273" x="557989.8274" y="4589045.1361" z="0.0000" type="priority" />
	<node id="262728270" x="557880.2558" y="4588854.5584" z="0.0000" type="priority" />
	<node id="515107506" x="558241.6078" y="4588806.8658" z="0.0000" type="priority" />
	<node id="262728271" x="557896.4624" y="4588942.0548" z="0.0000" type="priority" />
	<node id="1438512829" x="558180.6823" y="4588977.5446" z="0.0000" type="priority" />
	<node id="1438512707" x="558101.0609" y="4589329.6019" z="0.0000" type="priority" />
	<node id="3074377277" x="557633.3690" y="4589213.1327" z="0.0000" type="priority" />
	<node id="2215445309" x="557623.6507" y="4589060.6051" z="0.0000" type="priority" />
	<node id="3437422828" x="557973.9288" y="4588956.9092" z="0.0000" type="priority" />
	<node id="3437422826" x="558034.0227" y="4588930.8672" z="0.0000" type="priority" />
	<node id="3437422824" x="558003.4046" y="4589040.5708" z="0.0000" type="priority" />
	<node id="3437422821" x="557930.9374" y="4588961.7495" z="0.0000" type="priority" />
	<node id="262728276" x="558272.1535" y="4589067.3468" z="0.0000" type="priority" />
	<node id="5210862534" x="557661.0073" y="4589390.3069" z="0.0000" type="priority" />
	<node id="262728277" x="558330.1816" y="4589074.7761" z="0.0000" type="priority" />
	<node id="5210862535" x="557662.9142" y="4589420.3659" z="0.0000" type="priority" />
	<node id="3437422820" x="558018.3571" y="4588973.9196" z="0.0000" type="priority" />
	<node id="262728274" x="558041.1851" y="4589064.6226" z="0.0000" type="priority" />
	<node id="262728275" x="558132.1331" y="4589068.9507" z="0.0000" type="priority" />
	<node id="262728278" x="558380.5918" y="4589092.5032" z="0.0000" type="priority" />
	<node id="262728279" x="558418.9648" y="4589113.3531" z="0.0000" type="priority" />
	<node id="262728280" x="558494.3388" y="4589189.2830" z="0.0000" type="priority" />
	<node id="262728281" x="558551.2738" y="4589260.3568" z="0.0000" type="priority" />
	<node id="1437593282" x="557694.6226" y="4588960.7479" z="0.0000" type="priority" />
	<node id="1438512817" x="558121.6510" y="4589053.2228" z="0.0000" type="priority" />
	<node id="3074377288" x="558097.1229" y="4588843.6520" z="0.0000" type="priority" />
	<node id="3437422829" x="557800.3245" y="4589045.4393" z="0.0000" type="priority" />
	<node id="262731683" x="557918.5800" y="4588982.9675" z="0.0000" type="priority" />
	<node id="3437422816" x="557910.2028" y="4588991.1608" z="0.0000" type="priority" />
	<node id="3437422817" x="557823.1446" y="4589047.6314" z="0.0000" type="priority" />
	<node id="3437422814" x="557969.0453" y="4589031.5242" z="0.0000" type="priority" />
	<node id="1438512923" x="557857.7392" y="4588641.0967" z="0.0000" type="priority" />
	<node id="3437422813" x="557829.8343" y="4589025.8571" z="0.0000" type="priority" />
	<node id="1438512805" x="558125.7128" y="4588977.1135" z="0.0000" type="priority" />
	<node id="3437422810" x="557980.2371" y="4588966.0862" z="0.0000" type="priority" />
	<node id="1437593274" x="557623.4882" y="4589057.9391" z="0.0000" type="priority" />
	<node id="1487158523" x="557892.5774" y="4589206.0333" z="0.0000" type="priority" />
	<node id="2215445341" x="557646.0745" y="4589116.6856" z="0.0000" type="priority" />
	<node id="3074377252" x="558356.9007" y="4588749.1402" z="0.0000" type="priority" />
	<node id="2215445340" x="557646.7587" y="4589114.6815" z="0.0000" type="priority" />
	<node id="3074377251" x="558128.6519" y="4588768.4520" z="0.0000" type="priority" />
	<node id="3074377256" x="558126.6107" y="4588743.8876" z="0.0000" type="priority" />
	<node id="1837444904" x="557851.3997" y="4588644.1103" z="0.0000" type="priority" />
	<node id="3437422819" x="558023.5909" y="4588970.2200" z="0.0000" type="priority" />
	<node id="3437422805" x="558001.2571" y="4588972.9941" z="0.0000" type="priority" />
	<node id="3437422806" x="557824.0581" y="4589018.0168" z="0.0000" type="priority" />
	<node id="3437422803" x="557885.2280" y="4589023.3249" z="0.0000" type="priority" />
	<node id="3437422804" x="557668.9439" y="4589070.7921" z="0.0000" type="priority" />
	<node id="1438512913" x="558083.3796" y="4589216.0796" z="0.0000" type="priority" />
	<node id="3437422802" x="557982.4626" y="4589006.2733" z="0.0000" type="priority" />
	<node id="3437422800" x="558008.7038" y="4589048.4962" z="0.0000" type="priority" />
	<node id="899126718" x="558680.2993" y="4589362.5484" z="0.0000" type="priority" />
	<node id="3074377262" x="557743.3018" y="4589028.1520" z="0.0000" type="priority" />
	<node id="1438512916" x="558216.3299" y="4588954.2052" z="0.0000" type="priority" />
	<node id="3074377145" x="557781.5428" y="4589042.7800" z="0.0000" type="priority" />
	<node id="3437422809" x="557748.7259" y="4589039.2869" z="0.0000" type="priority" />
	<node id="3437422807" x="557987.3514" y="4588993.5001" z="0.0000" type="priority" />
	<node id="3437422808" x="557861.3273" y="4589022.5563" z="0.0000" type="priority" />
	<node id="3437422878" x="558000.5735" y="4589058.1902" z="0.0000" type="priority" />
	<node id="3437422999" x="557865.8072" y="4589023.2694" z="0.0000" type="priority" />
	<node id="1438512868" x="558035.7472" y="4589092.7131" z="0.0000" type="priority" />
	<node id="3437422876" x="557958.4280" y="4589032.6048" z="0.0000" type="priority" />
	<node id="3437422997" x="557679.5762" y="4589058.3864" z="0.0000" type="priority" />
	<node id="1438512749" x="558124.9810" y="4588911.2579" z="0.0000" type="priority" />
	<node id="3437422998" x="558009.0194" y="4589018.5328" z="0.0000" type="priority" />
	<node id="3437422874" x="557979.6427" y="4588986.0439" z="0.0000" type="priority" />
	<node id="3437422875" x="558024.7471" y="4589067.6216" z="0.0000" type="priority" />
	<node id="3437422996" x="557685.1493" y="4589061.3287" z="0.0000" type="priority" />
	<node id="3437422872" x="557673.3319" y="4589071.5154" z="0.0000" type="priority" />
	<node id="3437422993" x="557737.5077" y="4589040.3186" z="0.0000" type="priority" />
	<node id="3437422873" x="557948.8490" y="4589015.6631" z="0.0000" type="priority" />
	<node id="3437422870" x="557844.0484" y="4589034.5865" z="0.0000" type="priority" />
	<node id="3437422871" x="557963.3633" y="4588949.4412" z="0.0000" type="priority" />
	<node id="2215445116" x="557532.4942" y="4588811.6466" z="0.0000" type="priority" />
	<node id="1437593252" x="557616.8249" y="4588843.8163" z="0.0000" type="priority" />
	<node id="2215561604" x="557661.9732" y="4588779.1149" z="0.0000" type="priority" />
	<node id="1437593130" x="557622.1506" y="4588861.0567" z="0.0000" type="priority" />
	<node id="1437593376" x="557662.1681" y="4589083.5283" z="0.0000" type="priority" />
	<node id="3074377354" x="558123.6621" y="4588804.1290" z="0.0000" type="priority" />
	<node id="1438512735" x="558078.7425" y="4589319.1526" z="0.0000" type="priority" />
	<node id="3437422869" x="557859.3076" y="4589048.4203" z="0.0000" type="priority" />
	<node id="1438512736" x="557999.6072" y="4589129.6946" z="0.0000" type="priority" />
	<node id="1438512857" x="558107.9016" y="4589335.8744" z="0.0000" type="priority" />
	<node id="3437422868" x="557867.8524" y="4588961.8660" z="0.0000" type="priority" />
	<node id="262731527" x="557885.8784" y="4588908.7177" z="0.0000" type="priority" />
	<node id="1438512739" x="558071.3409" y="4589313.0311" z="0.0000" type="priority" />
	<node id="1438512738" x="557974.1018" y="4588640.5300" z="0.0000" type="priority" />
	<node id="3437422866" x="557923.4389" y="4589026.0403" z="0.0000" type="priority" />
	<node id="3437422863" x="557730.2032" y="4589031.3782" z="0.0000" type="priority" />
	<node id="2215445344" x="557633.8326" y="4589127.7461" z="0.0000" type="priority" />
	<node id="3437422864" x="557765.7442" y="4589039.9780" z="0.0000" type="priority" />
	<node id="2215445342" x="557626.9380" y="4589122.9170" z="0.0000" type="priority" />
	<node id="3437422862" x="557777.1645" y="4589041.8790" z="0.0000" type="priority" />
	<node id="2215445106" x="557552.7663" y="4588805.5682" z="0.0000" type="priority" />
	<node id="3437422860" x="558005.5871" y="4589023.6235" z="0.0000" type="priority" />
	<node id="1438512851" x="558059.5403" y="4589282.6150" z="0.0000" type="priority" />
	<node id="3074377360" x="557756.6789" y="4589039.1950" z="0.0000" type="priority" />
	<node id="3074377240" x="558562.3300" y="4589274.1471" z="0.0000" type="priority" />
	<node id="3074377367" x="558121.7385" y="4588860.5150" z="0.0000" type="priority" />
	<node id="515107550" x="558393.7693" y="4588729.9750" z="0.0000" type="priority" />
	<node id="3437422858" x="558008.7853" y="4589053.9483" z="0.0000" type="priority" />
	<node id="1438512847" x="558214.0001" y="4589326.4914" z="0.0000" type="priority" />
	<node id="3437422856" x="558030.3406" y="4589061.7599" z="0.0000" type="priority" />
	<node id="3437420798" x="558060.4010" y="4589075.6131" z="0.0000" type="priority" />
	<node id="1438512846" x="558219.7057" y="4588952.0007" z="0.0000" type="priority" />
	<node id="3437422857" x="557707.6865" y="4589044.5438" z="0.0000" type="priority" />
	<node id="1438512849" x="557995.3018" y="4589128.0612" z="0.0000" type="priority" />
	<node id="3437422854" x="557930.7310" y="4588988.5496" z="0.0000" type="priority" />
	<node id="3437422855" x="558011.4967" y="4589051.2499" z="0.0000" type="priority" />
	<node id="3437420799" x="557903.2281" y="4589050.5706" z="0.0000" type="priority" />
	<node id="3437422852" x="557827.8029" y="4589012.4733" z="0.0000" type="priority" />
	<node id="3434244115" x="558734.5023" y="4589395.2862" z="0.0000" type="priority" />
	<node id="3437422850" x="557729.6641" y="4589041.3662" z="0.0000" type="priority" />
	<node id="2215445139" x="557478.5571" y="4588833.5782" z="0.0000" type="priority" />
	<node id="1438512720" x="558206.1752" y="4589324.1968" z="0.0000" type="priority" />
	<node id="1438512841" x="558014.0459" y="4589116.6427" z="0.0000" type="priority" />
	<node id="1438512840" x="558130.9211" y="4589314.1872" z="0.0000" type="priority" />
	<node id="3074377450" x="558069.5832" y="4588869.4554" z="0.0000" type="priority" />
	<node id="262731411" x="558128.3696" y="4588864.8650" z="0.0000" type="priority" />
	<node id="1837444946" x="557859.1248" y="4588713.2637" z="0.0000" type="priority" />
	<node id="262731410" x="558080.9044" y="4588920.1077" z="0.0000" type="priority" />
	<node id="262731772" x="558019.0791" y="4589057.7725" z="0.0000" type="priority" />
	<node id="515107400" x="558490.1590" y="4588682.7463" z="0.0000" type="priority" />
	<node id="1438512832" x="558113.8841" y="4589343.9497" z="0.0000" type="priority" />
	<node id="3437422849" x="557839.7495" y="4589031.0880" z="0.0000" type="priority" />
	<node id="1438512834" x="558223.7437" y="4588951.5891" z="0.0000" type="priority" />
	<node id="3437422847" x="557739.0809" y="4589035.7902" z="0.0000" type="priority" />
	<node id="3437422848" x="557973.8623" y="4589043.3205" z="0.0000" type="priority" />
	<node id="1438512836" x="558221.1376" y="4589330.1240" z="0.0000" type="priority" />
	<node id="3437422845" x="557981.9544" y="4588972.7726" z="0.0000" type="priority" />
	<node id="1438512835" x="558265.8171" y="4589374.6725" z="0.0000" type="priority" />
	<node id="3437422846" x="557987.8993" y="4589052.2486" z="0.0000" type="priority" />
	<node id="3437422843" x="557998.5954" y="4588987.1952" z="0.0000" type="priority" />
	<node id="3437422844" x="557877.4096" y="4589032.6885" z="0.0000" type="priority" />
	<node id="3437422841" x="557671.3829" y="4589073.9425" z="0.0000" type="priority" />
	<node id="3434244105" x="558620.3685" y="4589325.3678" z="0.0000" type="priority" />
	<node id="3437422842" x="558012.5444" y="4588974.8167" z="0.0000" type="priority" />
	<node id="4248540804" x="558039.7729" y="4588968.9732" z="0.0000" type="priority" />
	<node id="2215533371" x="557843.2618" y="4588982.5643" z="0.0000" type="priority" />
	<node id="3077654056" x="558002.2560" y="4589034.8549" z="0.0000" type="priority" />
	<node id="2215533366" x="557874.3918" y="4588960.9857" z="0.0000" type="priority" />
	<node id="2215533368" x="557860.7928" y="4588965.1403" z="0.0000" type="priority" />
	<node id="1438512719" x="558122.1917" y="4589313.2288" z="0.0000" type="priority" />
	<node id="1438512718" x="558112.3741" y="4589120.3303" z="0.0000" type="priority" />
	<node id="1438512839" x="558087.4580" y="4589293.7754" z="0.0000" type="priority" />
	<node id="1437593462" x="557669.7093" y="4589418.7769" z="0.0000" type="priority" />
	<node id="3074377428" x="558414.8711" y="4588719.5535" z="0.0000" type="priority" />
	<node id="3437420810" x="558084.8566" y="4589069.6920" z="0.0000" type="priority" />
	<node id="3437420811" x="558070.7592" y="4589076.6289" z="0.0000" type="priority" />
	<node id="913324596" x="557892.8519" y="4589049.7214" z="0.0000" type="priority" />
	<node id="262732120" x="558052.6921" y="4588841.4410" z="0.0000" type="priority" />
	<node id="3074377550" x="558089.4697" y="4588851.1070" z="0.0000" type="priority" />
	<node id="515108315" x="558304.6878" y="4588775.4319" z="0.0000" type="priority" />
	<node id="262732121" x="558070.2237" y="4588850.0309" z="0.0000" type="priority" />
	<node id="515108312" x="558350.4605" y="4588752.1970" z="0.0000" type="priority" />
	<node id="3074377434" x="558160.6896" y="4588848.1601" z="0.0000" type="priority" />
	<node id="262732123" x="557935.4346" y="4588885.2662" z="0.0000" type="priority" />
	<node id="3437420803" x="557998.5279" y="4589061.1937" z="0.0000" type="priority" />
	<node id="3437420804" x="557934.1162" y="4589053.9490" z="0.0000" type="priority" />
	<node id="3437420801" x="558090.6061" y="4589076.6552" z="0.0000" type="priority" />
	<node id="3437420802" x="558015.5843" y="4589064.4171" z="0.0000" type="priority" />
	<node id="3437420800" x="557988.5176" y="4589059.5146" z="0.0000" type="priority" />
	<node id="262732010" x="557947.6130" y="4589420.9662" z="0.0000" type="priority" />
	<node id="2215561598" x="557667.0901" y="4588764.9332" z="0.0000" type="priority" />
	<node id="2215561599" x="557664.0705" y="4588772.7587" z="0.0000" type="priority" />
	<node id="3074377321" x="558110.7111" y="4588826.3412" z="0.0000" type="priority" />
	<node id="3437420809" x="558131.8103" y="4589075.8539" z="0.0000" type="priority" />
	<node id="515107473" x="558445.1401" y="4588704.5986" z="0.0000" type="priority" />
	<node id="3074377441" x="558071.7519" y="4589069.5090" z="0.0000" type="priority" />
	<node id="262732012" x="557894.8985" y="4589230.1446" z="0.0000" type="priority" />
	<node id="262732011" x="557917.4774" y="4589334.3017" z="0.0000" type="priority" />
	<node id="3437420808" x="558106.3848" y="4589069.4209" z="0.0000" type="priority" />
	<node id="3437420805" x="557918.1683" y="4589052.0670" z="0.0000" type="priority" />
	<node id="262732013" x="557892.8298" y="4589189.1149" z="0.0000" type="priority" />
	<node id="3437420806" x="557975.4795" y="4589058.3220" z="0.0000" type="priority" />
	<node id="3074377533" x="558267.1610" y="4588794.4480" z="0.0000" type="priority" />
	<node id="3074377538" x="558482.2438" y="4588686.3795" z="0.0000" type="priority" />
	<node id="262732155" x="557966.1106" y="4588613.0424" z="0.0000" type="priority" />
	<node id="262732154" x="557972.9342" y="4588648.6255" z="0.0000" type="priority" />
	<node id="262732157" x="557853.1766" y="4588423.0823" z="0.0000" type="priority" />
	<node id="3074377302" x="558122.9758" y="4588722.2083" z="0.0000" type="priority" />
	<node id="262732156" x="557924.0358" y="4588555.3490" z="0.0000" type="priority" />
	<node id="1438512902" x="558089.0611" y="4589198.2278" z="0.0000" type="priority" />
	<node id="1438512904" x="558133.5013" y="4589132.5243" z="0.0000" type="priority" />
	<node id="1487158501" x="557853.6376" y="4589154.6605" z="0.0000" type="priority" />
	<node id="1487158502" x="557910.6899" y="4589156.6273" z="0.0000" type="priority" />
	<node id="1438512906" x="558092.3020" y="4589325.0349" z="0.0000" type="priority" />
	<node id="1438512908" x="558114.7834" y="4589378.5861" z="0.0000" type="priority" />
	<node id="1438512907" x="558117.9470" y="4589367.4200" z="0.0000" type="priority" />
	<node id="1438512909" x="558064.6943" y="4589303.3850" z="0.0000" type="priority" />
	<node id="2215561675" x="557635.5311" y="4589015.2789" z="0.0000" type="priority" />
	<node id="3236041649" x="558155.0108" y="4588851.0899" z="0.0000" type="priority" />
	<node id="2215561671" x="557645.8426" y="4588989.6919" z="0.0000" type="priority" />
	<node id="2215561672" x="557638.7445" y="4589000.9377" z="0.0000" type="priority" />
	<node id="3434244994" x="558723.4223" y="4589388.6012" z="0.0000" type="priority" />
	<node id="2215561664" x="557685.3788" y="4588962.4283" z="0.0000" type="priority" />
	<node id="2215561669" x="557666.3501" y="4588973.9454" z="0.0000" type="priority" />
	<node id="3236041616" x="558201.0875" y="4588927.9690" z="0.0000" type="priority" />
	<node id="2215561660" x="557691.9915" y="4588957.5848" z="0.0000" type="priority" />
	<node id="3437378585" x="557870.8614" y="4588867.7286" z="0.0000" type="priority" />
	<node id="3437378584" x="557895.4454" y="4588895.8930" z="0.0000" type="priority" />
	<node id="3814804555" x="557834.7805" y="4589025.7190" z="0.0000" type="priority" />
	<node id="3437378583" x="557850.9002" y="4588949.7728" z="0.0000" type="priority" />
	<node id="3437378582" x="557885.3656" y="4588868.4332" z="0.0000" type="priority" />
	<node id="3437378589" x="557984.8932" y="4588959.4286" z="0.0000" type="priority" />
	<node id="262732119" x="558003.2045" y="4588803.1505" z="0.0000" type="priority" />
	<node id="3437378588" x="557962.6587" y="4588938.3440" z="0.0000" type="priority" />
	<node id="262732118" x="557976.9227" y="4588763.7807" z="0.0000" type="priority" />
	<node id="3437378586" x="557883.0972" y="4588887.7891" z="0.0000" type="priority" />
	<node id="262732115" x="558037.0197" y="4588910.2847" z="0.0000" type="priority" />
	<node id="262732114" x="558052.9874" y="4588886.8420" z="0.0000" type="priority" />
	<node id="262732117" x="557956.2178" y="4588753.9776" z="0.0000" type="priority" />
	<node id="3437378592" x="557870.8745" y="4588886.9585" z="0.0000" type="priority" />
	<node id="3437378591" x="557859.7851" y="4588933.4453" z="0.0000" type="priority" />
	<node id="262732113" x="558086.1861" y="4588854.3226" z="0.0000" type="priority" />
	<node id="1437593857" x="557644.1264" y="4589005.8769" z="0.0000" type="priority" />
	<node id="3437423009" x="557848.4031" y="4589014.4256" z="0.0000" type="priority" />
	<node id="3437423008" x="557829.8481" y="4589008.4705" z="0.0000" type="priority" />
	<node id="3437423007" x="557682.0153" y="4589061.5257" z="0.0000" type="priority" />
	<node id="3437423006" x="557790.4778" y="4589044.1837" z="0.0000" type="priority" />
	<node id="3437423005" x="557854.3624" y="4589025.4760" z="0.0000" type="priority" />
	<node id="3437423004" x="557836.1144" y="4589047.9683" z="0.0000" type="priority" />
	<node id="3437423003" x="558052.0001" y="4589066.9966" z="0.0000" type="priority" />
	<node id="3437423001" x="557940.3089" y="4589018.1372" z="0.0000" type="priority" />
	<node id="3437423010" x="557693.5183" y="4589052.0249" z="0.0000" type="priority" />
	<node id="4248529027" x="557936.9334" y="4588997.3926" z="0.0000" type="priority" />
	<node id="913324628" x="558411.5225" y="4589118.4779" z="0.0000" type="priority" />
	<node id="1437593611" x="557628.4964" y="4589114.9911" z="0.0000" type="priority" />
	<node id="913324881" x="558486.3072" y="4589192.9041" z="0.0000" type="priority" />
	<node id="913324643" x="557714.7609" y="4589041.5026" z="0.0000" type="priority" />
	<node id="262732092" x="557673.2256" y="4589087.9687" z="0.0000" type="priority" />
	<node id="262732091" x="557773.0333" y="4589131.3220" z="0.0000" type="priority" />
	<node id="262732093" x="557868.2512" y="4589156.2319" z="0.0000" type="priority" />
	<node id="1437593843" x="557603.1348" y="4588828.9962" z="0.0000" type="priority" />
	<node id="3437413783" x="557869.1191" y="4589033.1994" z="0.0000" type="priority" />
	<node id="3437379102" x="557892.1348" y="4588930.6510" z="0.0000" type="priority" />
	<node id="3437413782" x="557832.9851" y="4589008.9397" z="0.0000" type="priority" />
	<node id="3437379101" x="557862.8099" y="4588680.7514" z="0.0000" type="priority" />
	<node id="3437413785" x="557850.6607" y="4589031.8859" z="0.0000" type="priority" />
	<node id="913324891" x="558205.4001" y="4589075.0138" z="0.0000" type="priority" />
	<node id="3437379100" x="557888.6475" y="4588919.6759" z="0.0000" type="priority" />
	<node id="3437413784" x="557676.3608" y="4589067.7314" z="0.0000" type="priority" />
	<node id="3437379106" x="557872.5508" y="4588779.8204" z="0.0000" type="priority" />
	<node id="3437413786" x="558038.4559" y="4588962.3787" z="0.0000" type="priority" />
	<node id="3437413789" x="557761.4214" y="4589034.2367" z="0.0000" type="priority" />
	<node id="3437379104" x="557905.3404" y="4588975.6226" z="0.0000" type="priority" />
	<node id="3437413788" x="557918.1906" y="4588994.0337" z="0.0000" type="priority" />
	<node id="3437379103" x="557859.9823" y="4588655.1706" z="0.0000" type="priority" />
	<node id="3437379109" x="557894.2009" y="4588955.3376" z="0.0000" type="priority" />
	<node id="3437379108" x="557888.2337" y="4588880.5913" z="0.0000" type="priority" />
	<node id="3437379107" x="557852.9907" y="4588655.1146" z="0.0000" type="priority" />
	<node id="3437413790" x="557937.6905" y="4589012.3650" z="0.0000" type="priority" />
	<node id="3437413791" x="557865.6261" y="4589025.0221" z="0.0000" type="priority" />
	<node id="3437413772" x="557909.5144" y="4589019.7445" z="0.0000" type="priority" />
	<node id="3437413771" x="557755.5912" y="4589026.8734" z="0.0000" type="priority" />
	<node id="3437379112" x="557876.9014" y="4588896.8770" z="0.0000" type="priority" />
	<node id="3437413774" x="557900.8181" y="4588978.1066" z="0.0000" type="priority" />
	<node id="3437379111" x="557912.1987" y="4588973.5014" z="0.0000" type="priority" />
	<node id="3236044019" x="558181.3344" y="4588904.8164" z="0.0000" type="priority" />
	<node id="3437379110" x="557868.0272" y="4588734.4411" z="0.0000" type="priority" />
	<node id="3437413776" x="557974.6916" y="4588995.1195" z="0.0000" type="priority" />
	<node id="3437379117" x="557904.6083" y="4588904.3378" z="0.0000" type="priority" />
	<node id="1437593828" x="557693.4152" y="4588949.8021" z="0.0000" type="priority" />
	<node id="3437413775" x="557948.8560" y="4589020.0043" z="0.0000" type="priority" />
	<node id="3437379116" x="557854.4510" y="4588667.8499" z="0.0000" type="priority" />
	<node id="3437413778" x="557835.4695" y="4589027.3011" z="0.0000" type="priority" />
	<node id="3437413777" x="557996.8248" y="4588994.4421" z="0.0000" type="priority" />
	<node id="3437413779" x="557855.0589" y="4588968.7138" z="0.0000" type="priority" />
	<node id="3437379118" x="557901.1254" y="4588953.2947" z="0.0000" type="priority" />
	<node id="913324542" x="558354.9632" y="4589088.5102" z="0.0000" type="priority" />
	<node id="1437593821" x="557638.6986" y="4589147.0813" z="0.0000" type="priority" />
	<node id="3437379120" x="557886.2173" y="4588873.6916" z="0.0000" type="priority" />
	<node id="3437379123" x="557989.7878" y="4588967.8171" z="0.0000" type="priority" />
	<node id="3437379122" x="557884.4425" y="4588899.2134" z="0.0000" type="priority" />
	<node id="3437379121" x="557970.9929" y="4588943.8512" z="0.0000" type="priority" />
	<node id="3437379128" x="557875.6610" y="4588884.8762" z="0.0000" type="priority" />
	<node id="3437379127" x="557865.7561" y="4588781.2760" z="0.0000" type="priority" />
	<node id="3437379126" x="557942.0760" y="4588928.9861" z="0.0000" type="priority" />
	<node id="3437423048" x="557971.0743" y="4588999.3317" z="0.0000" type="priority" />
	<node id="3437379129" x="557890.3670" y="4588886.4484" z="0.0000" type="priority" />
	<node id="3437423047" x="557870.2070" y="4589048.6075" z="0.0000" type="priority" />
	<node id="3437423046" x="558035.5833" y="4588945.6129" z="0.0000" type="priority" />
	<node id="3437423045" x="558000.4061" y="4588996.8024" z="0.0000" type="priority" />
	<node id="3437423044" x="557879.6751" y="4588961.5276" z="0.0000" type="priority" />
	<node id="913324676" x="558329.0880" y="4589080.9071" z="0.0000" type="priority" />
	<node id="913324797" x="558456.8214" y="4589158.7692" z="0.0000" type="priority" />
	<node id="3437423050" x="557829.9794" y="4589034.8625" z="0.0000" type="priority" />
	<node id="262732049" x="557794.8251" y="4589267.3148" z="0.0000" type="priority" />
	<node id="3437379131" x="557906.3217" y="4588963.6507" z="0.0000" type="priority" />
	<node id="3437379130" x="557889.9197" y="4588945.4442" z="0.0000" type="priority" />
	<node id="1310741692" x="558034.3988" y="4588830.9465" z="0.0000" type="priority" />
	<node id="3209123009" x="557925.1784" y="4588991.3807" z="0.0000" type="priority" />
	<node id="3437379135" x="557870.7611" y="4588894.8627" z="0.0000" type="priority" />
	<node id="3437379134" x="557868.2189" y="4588910.8634" z="0.0000" type="priority" />
	<node id="3437379133" x="557836.0221" y="4588974.9344" z="0.0000" type="priority" />
	<node id="3437379139" x="557842.3560" y="4588963.1830" z="0.0000" type="priority" />
	<node id="3437379138" x="557911.5951" y="4588985.2431" z="0.0000" type="priority" />
	<node id="3437379137" x="557934.8482" y="4588925.0866" z="0.0000" type="priority" />
	<node id="3437379136" x="557864.5856" y="4588699.9954" z="0.0000" type="priority" />
	<node id="3437423039" x="557794.5480" y="4589034.5014" z="0.0000" type="priority" />
	<node id="3437423038" x="557842.6444" y="4589005.4419" z="0.0000" type="priority" />
	<node id="1437593809" x="557625.2949" y="4589035.6373" z="0.0000" type="priority" />
	<node id="3437423035" x="557993.9434" y="4588997.5055" z="0.0000" type="priority" />
	<node id="3437423033" x="557777.9017" y="4589034.3017" z="0.0000" type="priority" />
	<node id="3437423043" x="558061.0509" y="4589068.5460" z="0.0000" type="priority" />
	<node id="3437423041" x="557990.9737" y="4588966.8051" z="0.0000" type="priority" />
	<node id="3437423040" x="557976.6466" y="4588999.2431" z="0.0000" type="priority" />
	<node id="1107639190" x="557888.0534" y="4589031.4192" z="0.0000" type="priority" />
	<node id="1107639197" x="557727.2628" y="4589037.6721" z="0.0000" type="priority" />
	<node id="1107639195" x="558015.1764" y="4589012.1981" z="0.0000" type="priority" />
	<node id="3437379140" x="557863.7240" y="4588924.5392" z="0.0000" type="priority" />
	<node id="913324571" x="557648.9050" y="4589108.4589" z="0.0000" type="priority" />
	<node id="3437423029" x="557995.7534" y="4588970.7738" z="0.0000" type="priority" />
	<node id="3437423028" x="557889.8243" y="4588966.7383" z="0.0000" type="priority" />
	<node id="3437423027" x="558033.9117" y="4589070.5930" z="0.0000" type="priority" />
	<node id="3437423025" x="557833.3475" y="4589018.9905" z="0.0000" type="priority" />
	<node id="913324695" x="558609.1100" y="4589316.9828" z="0.0000" type="priority" />
	<node id="3437423023" x="557689.8777" y="4589049.7531" z="0.0000" type="priority" />
	<node id="3437423032" x="558043.0229" y="4589072.9311" z="0.0000" type="priority" />
	<node id="1107639188" x="557969.0743" y="4588952.8955" z="0.0000" type="priority" />
	<node id="1107639186" x="557706.1334" y="4589040.2902" z="0.0000" type="priority" />
	<node id="1107639187" x="557951.8647" y="4588933.3279" z="0.0000" type="priority" />
	<node id="1107639185" x="557833.4478" y="4588991.8231" z="0.0000" type="priority" />
	<node id="3437423019" x="557702.1970" y="4589051.0061" z="0.0000" type="priority" />
	<node id="899126483" x="557642.8382" y="4589322.4581" z="0.0000" type="priority" />
	<node id="3437423018" x="557841.1039" y="4588988.1317" z="0.0000" type="priority" />
	<node id="3437423016" x="557842.2099" y="4589031.5629" z="0.0000" type="priority" />
	<node id="3437423015" x="557813.1927" y="4589026.1126" z="0.0000" type="priority" />
	<node id="913324585" x="558273.5437" y="4589075.1964" z="0.0000" type="priority" />
	<node id="3437423014" x="557856.4012" y="4589033.7416" z="0.0000" type="priority" />
	<node id="3437423013" x="557831.0030" y="4589004.0165" z="0.0000" type="priority" />
	<node id="3437423012" x="557882.9166" y="4589049.0978" z="0.0000" type="priority" />
	<node id="3437423011" x="557684.0888" y="4589053.9592" z="0.0000" type="priority" />
	<node id="1107639292" x="557900.0055" y="4588965.8761" z="0.0000" type="priority" />
	<node id="3437423020" x="557700.1970" y="4589048.3144" z="0.0000" type="priority" />
	<node id="1107639179" x="557869.7914" y="4588903.3040" z="0.0000" type="priority" />
	<node id="1107639177" x="558017.7220" y="4588984.3621" z="0.0000" type="priority" />