<?xml version="1.0" ?>
<!-- Generated by VSimRTI -->
<routes>
	<vType id="default" length="7.5" maxSpeed="50" minGap="2.0" carFollowModel="Krauss" accel="0.80" decel="4.5" sigma="0.5" tau="1"/>
	<route id="1" edges="130673469_1438512923_262728270_3437379106 95523263_262728270_3209123009_262728270 95523263_262728270_3209123009_3437378586 95523263_262728270_3209123009_3437379122 95523263_262728270_3209123009_262731527 95523263_262728270_3209123009_3437379100 95523263_262728270_3209123009_3437379102 95523263_262728270_3209123009_262728271 95523263_262728270_3209123009_3437379118 95523263_262728270_3209123009_3437379131 95523263_262728270_3209123009_3437379111 95523263_262728270_3209123009_262731683 336683275_3209123009_4248540519_3209123009 336683275_4248540519_3437422814_4248540519 336683275_4248540519_3437422814_3437422873 95523260_3437422814_262731772_3437422814 95523260_3437422814_262731772_3437422799 95523260_3437422814_262731772_262728273 95523260_3437422814_262731772_3437422794 95523260_3437422814_262731772_3437422858 95523260_262731772_3434244115_262731772 95523260_262731772_3434244115_3437422856 95523260_262731772_3434244115_262728274 95523260_262731772_3434244115_3437423003" />
	<route id="2" edges="130673469_1438512923_262728270_3437379106 95523267_262728270_3437378589_262728270 95523267_262728270_3437378589_3437378582 95523267_262728270_3437378589_3437379120 95523267_262728270_3437378589_3437379108 95523267_262728270_3437378589_3437379129 95523267_262728270_3437378589_1107639222 95523267_262728270_3437378589_3437378584 95523267_262728270_3437378589_3437379093 95523267_262728270_3437378589_3437379117 95523267_262728270_3437378589_1107639211 95523267_262728270_3437378589_3437379096 95523267_262728270_3437378589_3437379137 95523267_262728270_3437378589_3437379126 95523267_262728270_3437378589_1107639187 95523267_262728270_3437378589_3437378588 95523267_262728270_3437378589_3437379121 95523267_262728270_3437378589_1107639270 303127227_3437378589_3437422820_3437378589 303127227_3437378589_3437422820_3437423041 303127227_3437378589_3437422820_3437423029 303127227_3437378589_3437422820_3437422805 303127227_3437378589_3437422820_1107639268 303127227_3437378589_3437422820_3437422842 455677521_3437422820_3437413786_3437422820 455677521_3437422820_3437413786_3437422819 20899781_3437413786_3882980755_3437413786 20899781_3882980755_3882980726_3882980755 20899781_3882980755_3882980726_262731410" />
	<route id="3" edges="130673496_1438512805_1438512755_1438512666 20899781_1438512755_3882980726_1438512755 20899781_3882980726_3882980755_3882980726 20899781_3882980726_3882980755_262731410 20899781_3882980755_3437413786_3882980755 95523248_3437413786_1107639226_3437413786 95523248_3437413786_1107639226_4248540804 95523248_3437413786_1107639226_1107639221 95523248_1107639226_262731948_1107639226 95523248_1107639226_262731948_4248529300 95523248_1107639226_262731948_4248529301 95523252_262731948_262731947_262731948 95523259_262731947_1438512667_262731947 95523259_262731947_1438512667_1107639282 95523259_1438512667_262731946_1438512667 379745860_262731946_262732010_262731946 379745860_262731946_262732010_1487158497 379745860_262731946_262732010_1487158502 379745860_262731946_262732010_262732013 379745860_262731946_262732010_1487158523 379745860_262731946_262732010_262732012 379745860_262731946_262732010_262732011 379745860_262732010_262731946_262732010 379745860_262732010_262731946_262732011 379745860_262732010_262731946_262732012 379745860_262732010_262731946_1487158523 379745860_262732010_262731946_262732013 379745860_262732010_262731946_1487158502 379745860_262732010_262731946_1487158497" />
	<route id="4" edges="172903637_1107639249_1837444904_1107639249 172903637_1107639249_1837444904_3437379127 172903637_1107639249_1837444904_1837444946 172903637_1107639249_1837444904_3437379116 172903637_1107639249_1837444904_3437379107" />
	<route id="5" edges="95523262_913324881_3437420802_913324812 95523262_913324881_3437420802_3437420811 95523262_913324881_3437420802_3437420798 95523262_913324881_3437420802_913324723 95523262_913324881_3437420802_3437423032 95523262_913324881_3437420802_3437423027 95523262_913324881_3437420802_3437422875 95523262_3437420802_3437422876_3437420802 95523262_3437420802_3437422876_3437422878 95523262_3437420802_3437422876_3437422846 95523262_3437420802_3437422876_3437422848 336683274_3437422876_3437413788_3437422876 336683274_3437422876_3437413788_3437423001 336683280_3437413788_1107639228_3437413788 336683280_3437413788_1107639228_3437422816 336683280_3437413788_1107639228_3437413774 336683280_3437413788_1107639228_1107639232 336683280_3437413788_1107639228_3437423028 336683280_3437413788_1107639228_1107639218 336683280_3437413788_1107639228_3437423044 336683280_3437413788_1107639228_2215533366 336683280_3437413788_1107639228_3437422868 336683280_3437413788_1107639228_2215533368 336683280_3437413788_1107639228_3437413779 336683280_3437413788_1107639228_1107639207 336683280_3437413788_1107639228_3437422836 336683280_3437413788_1107639228_2215533371 336683280_3437413788_1107639228_3437423018 336683280_3437413788_1107639228_1107639173 336683280_3437413788_1107639228_1107639267 336683280_3437413788_1107639228_3437423038 336683280_3437413788_1107639228_3437422795 336683280_3437413788_1107639228_3437423009 336683280_3437413788_1107639228_3437422835 336683280_3437413788_1107639228_3437422831 336683280_3437413788_1107639228_3437422808 336683280_3437413788_1107639228_3437422999 455677523_1107639228_1107639229_1107639228 455677523_1107639228_1107639229_3437422803 455677523_1107639228_1107639229_1107639257 455677523_1107639228_1107639229_3437413772 455677523_1107639228_1107639229_1107639240 455677523_1107639228_1107639229_3437413790 455677523_1107639228_1107639229_3437422891 455677523_1107639229_3437422843_1107639229 455677523_1107639229_3437422843_3437423040 455677523_1107639229_3437422843_3437422807 455677523_1107639229_3437422843_1107639216 455677521_3437422843_3437422820_3437422843 455677521_3437422843_3437422820_1107639254 455677521_3437422843_3437422820_1107639256 455677521_3437422820_3437413786_3437422820 455677521_3437422820_3437413786_3437422819 20899781_3437413786_3882980755_3437413786 20899781_3882980755_3882980726_3882980755 20899781_3882980755_3882980726_262731410" />
	<route id="6" edges="95523262_913324881_3437420802_3437420801 95523262_913324881_3437420802_913324812 95523262_913324881_3437420802_3437420811 95523262_913324881_3437420802_3437420798 95523262_913324881_3437420802_913324723 95523262_913324881_3437420802_3437423032 95523262_913324881_3437420802_3437423027 95523262_913324881_3437420802_3437422875 95523262_3437420802_3437422876_3437420802 95523262_3437420802_3437422876_3437422878 95523262_3437420802_3437422876_3437422846 95523262_3437420802_3437422876_3437422848 336683274_3437422876_3437413788_3437422876 336683274_3437422876_3437413788_3437423001 336683278_3437413788_1107639249_3437413788 336683278_3437413788_1107639249_3437379138 336683278_3437413788_1107639249_3437379104 336683278_3437413788_1107639249_1107639292 336683278_3437413788_1107639249_3437379109 336683278_3437413788_1107639249_3437379130 336683278_3437413788_1107639249_3437379098 336683278_3437413788_1107639249_1107639279 336683278_3437413788_1107639249_3437379094 336683278_3437413788_1107639249_1107639264 336683278_3437413788_1107639249_3437379112 336683278_3437413788_1107639249_3437379128" />
	<route id="7" edges="95523262_913324881_3437420802_3437420801 95523262_913324881_3437420802_913324812 95523262_913324881_3437420802_3437420811 95523262_913324881_3437420802_3437420798 95523262_913324881_3437420802_913324723 95523262_913324881_3437420802_3437423032 95523262_913324881_3437420802_3437423027 95523262_913324881_3437420802_3437422875 95523262_3437420802_3437422876_3437420802 95523262_3437420802_3437422876_3437422878 95523262_3437420802_3437422876_3437422846 95523262_3437420802_3437422876_3437422848 336683274_3437422876_3437413788_3437422876 336683274_3437422876_3437413788_3437423001 336683280_3437413788_1107639228_3437413788 336683280_3437413788_1107639228_3437422816 336683280_3437413788_1107639228_3437413774 336683280_3437413788_1107639228_1107639232 336683280_3437413788_1107639228_3437423028 336683280_3437413788_1107639228_1107639218 336683280_3437413788_1107639228_3437423044 336683280_3437413788_1107639228_2215533366 336683280_3437413788_1107639228_3437422868 336683280_3437413788_1107639228_2215533368 336683280_3437413788_1107639228_3437413779 336683280_3437413788_1107639228_1107639207 336683280_3437413788_1107639228_3437422836 336683280_3437413788_1107639228_2215533371 336683280_3437413788_1107639228_3437423018 336683280_3437413788_1107639228_1107639173 336683280_3437413788_1107639228_1107639267 336683280_3437413788_1107639228_3437423038 336683280_3437413788_1107639228_3437422795 336683280_3437413788_1107639228_3437423009 336683280_3437413788_1107639228_3437422835 336683280_3437413788_1107639228_3437422831 336683280_3437413788_1107639228_3437422808 336683280_3437413788_1107639228_3437422999 455677523_1107639228_1107639229_1107639228 455677523_1107639228_1107639229_3437422803 455677523_1107639228_1107639229_1107639257 455677523_1107639228_1107639229_3437413772 455677523_1107639228_1107639229_1107639240 455677523_1107639228_1107639229_3437413790 455677523_1107639228_1107639229_3437422891 455677523_1107639229_3437422843_1107639229 455677523_1107639229_3437422843_3437423040 455677523_1107639229_3437422843_3437422807 455677523_1107639229_3437422843_1107639216 455677521_3437422843_3437422820_3437422843 455677521_3437422843_3437422820_1107639254 455677521_3437422843_3437422820_1107639256 455677521_3437422820_3437413786_3437422820 455677521_3437422820_3437413786_3437422819 20899781_3437413786_3882980755_3437413786 20899781_3882980755_3882980726_3882980755 20899781_3882980755_3882980726_262731410 20899781_3882980726_1438512755_3882980726" />
</routes>