<connections>
	<connection from="20899781_1438512755_3882980726_1438512755" to="384943717_3882980726_3882980861_3882980726" />
	<connection from="20899781_1438512755_3882980726_1438512755" to="20899781_3882980726_1438512755_3882980726" />
	<connection from="20899781_1438512755_3882980726_1438512755" to="20899781_3882980726_3882980755_3882980726" />
	<connection from="95523248_1107639226_262731948_1107639226" to="95523248_1107639226_262731948_4248529300" />
	<connection from="95523248_1107639226_262731948_4248529300" to="95523248_1107639226_262731948_4248529301" />
	<connection from="95523248_1107639226_262731948_4248529301" to="95523252_262731948_262731947_262731948" />
	<connection from="95523248_1107639226_262731948_4248529301" to="95523248_262731948_1107639226_262731948" />
	<connection from="95523255_1437593376_3437423015_1437593376" to="95523255_1437593376_3437423015_3437422804" />
	<connection from="95523255_1437593376_3437423015_3437422804" to="95523255_1437593376_3437423015_3437422837" />
	<connection from="95523255_1437593376_3437423015_3437422837" to="95523255_1437593376_3437423015_3437422997" />
	<connection from="95523255_1437593376_3437423015_3437422997" to="95523255_1437593376_3437423015_3437423011" />
	<connection from="95523255_1437593376_3437423015_3437423011" to="95523255_1437593376_3437423015_3437423023" />
	<connection from="95523255_1437593376_3437423015_3437423023" to="95523255_1437593376_3437423015_262731741" />
	<connection from="95523255_1437593376_3437423015_262731741" to="95523255_1437593376_3437423015_1107639186" />
	<connection from="95523255_1437593376_3437423015_1107639186" to="95523255_1437593376_3437423015_3437422881" />
	<connection from="95523255_1437593376_3437423015_3437422881" to="95523255_1437593376_3437423015_3437422863" />
	<connection from="95523255_1437593376_3437423015_3437422863" to="95523255_1437593376_3437423015_3074377262" />
	<connection from="95523255_1437593376_3437423015_3074377262" to="95523255_1437593376_3437423015_3437413771" />
	<connection from="95523255_1437593376_3437423015_3437413771" to="95523255_1437593376_3437423015_3074377199" />
	<connection from="95523255_1437593376_3437423015_3074377199" to="95523255_1437593376_3437423015_1107639289" />
	<connection from="95523255_1437593376_3437423015_1107639289" to="95523255_3437423015_3814804555_3437423015" />
	<connection from="95523255_1437593376_3437423015_1107639289" to="95523258_3437423015_1107639185_3437423015" />
	<connection from="130673466_1438512876_1438512667_1438512876" to="130673466_1438512876_1438512667_1438512753" />
	<connection from="130673466_1438512876_1438512667_1438512753" to="130673466_1438512876_1438512667_1438512896" />
	<connection from="130673466_1438512876_1438512667_1438512896" to="130673466_1438512876_1438512667_1438512868" />
	<connection from="130673466_1438512876_1438512667_1438512868" to="130673466_1438512876_1438512667_1438512841" />
	<connection from="130673466_1438512876_1438512667_1438512841" to="130673466_1438512876_1438512667_1438512736" />
	<connection from="130673466_1438512876_1438512667_1438512736" to="130673466_1438512876_1438512667_1438512849" />
	<connection from="130673466_1438512876_1438512667_1438512849" to="130673466_1438512667_1438512876_1438512667" />
	<connection from="130673466_1438512876_1438512667_1438512849" to="95523259_1438512667_262731946_1438512667" />
	<connection from="130673466_1438512876_1438512667_1438512849" to="95523259_1438512667_262731947_1438512667" />
	<connection from="455677524_3437422843_3437422802_3437422843" to="455677524_3437422843_3437422802_3437422882" />
	<connection from="455677524_3437422843_3437422802_3437422882" to="455677524_3437422843_3437422802_3437413777" />
	<connection from="455677524_3437422843_3437422802_3437413777" to="455677524_3437422843_3437422802_3437423035" />
	<connection from="455677524_3437422843_3437422802_3437423035" to="95523256_3437422802_3437423014_3437422802" />
	<connection from="303127261_3074377292_262732113_3074377292" to="303127261_3074377292_262732113_3074377302" />
	<connection from="303127261_3074377292_262732113_3074377302" to="303127261_3074377292_262732113_3074377256" />
	<connection from="303127261_3074377292_262732113_3074377256" to="303127261_3074377292_262732113_3074377251" />
	<connection from="303127261_3074377292_262732113_3074377251" to="303127261_3074377292_262732113_3074377193" />
	<connection from="303127261_3074377292_262732113_3074377193" to="303127261_3074377292_262732113_3074377354" />
	<connection from="303127261_3074377292_262732113_3074377354" to="303127261_3074377292_262732113_3074377321" />
	<connection from="303127261_3074377292_262732113_3074377321" to="303127261_3074377292_262732113_3074377288" />
	<connection from="303127261_3074377292_262732113_3074377288" to="303127261_3074377292_262732113_3074377550" />
	<connection from="303127261_3074377292_262732113_3074377550" to="303127261_262732113_3074377292_262732113" />
	<connection from="303127261_3074377292_262732113_3074377550" to="24267159_262732113_262731411_262732113" />
	<connection from="77619032_1437593376_2215445341_1437593376" to="77619032_1437593376_2215445341_913324571" />
	<connection from="77619032_1437593376_2215445341_913324571" to="77619032_1437593376_2215445341_2215445340" />
	<connection from="77619032_1437593376_2215445341_2215445340" to="77619032_2215445341_899126525_2215445341" />
	<connection from="77619032_1437593376_2215445341_2215445340" to="77619032_2215445341_1437593376_2215445341" />
	<connection from="95523252_262731948_262731947_262731948" to="95523252_262731947_262731948_262731947" />
	<connection from="95523252_262731948_262731947_262731948" to="95523259_262731947_1438512667_262731947" />
	<connection from="95523267_3437378589_3437422843_3437378589" to="95523267_3437378589_3437422843_3437379123" />
	<connection from="95523267_3437378589_3437422843_3437379123" to="95523267_3437378589_3437422843_1107639259" />
	<connection from="95523267_3437378589_3437422843_1107639259" to="95523267_3437378589_3437422843_3437422884" />
	<connection from="95523267_3437378589_3437422843_3437422884" to="455677524_3437422843_3437422802_3437422843" />
	<connection from="455677521_3437422820_3437413786_3437422820" to="455677521_3437422820_3437413786_3437422819" />
	<connection from="455677521_3437422820_3437413786_3437422819" to="20899781_3437413786_3882980755_3437413786" />
	<connection from="455677521_3437422820_3437413786_3437422819" to="95523248_3437413786_1107639226_3437413786" />
	<connection from="455677521_3437422820_3437413786_3437422819" to="24267158_3437413786_262732113_3437413786" />
	<connection from="455677523_1107639228_1107639229_1107639228" to="455677523_1107639228_1107639229_3437422803" />
	<connection from="455677523_1107639228_1107639229_3437422803" to="455677523_1107639228_1107639229_1107639257" />
	<connection from="455677523_1107639228_1107639229_1107639257" to="455677523_1107639228_1107639229_3437413772" />
	<connection from="455677523_1107639228_1107639229_3437413772" to="455677523_1107639228_1107639229_1107639240" />
	<connection from="455677523_1107639228_1107639229_1107639240" to="455677523_1107639228_1107639229_3437413790" />
	<connection from="455677523_1107639228_1107639229_3437413790" to="455677523_1107639228_1107639229_3437422891" />
	<connection from="455677523_1107639228_1107639229_3437422891" to="95523249_1107639229_4248540519_1107639229" />
	<connection from="455677523_1107639228_1107639229_3437422891" to="455677523_1107639229_3437422843_1107639229" />
	<connection from="130558522_1437593828_2214860828_1437593828" to="130558522_1437593828_2214860828_1437593516" />
	<connection from="130558522_1437593828_2214860828_1437593516" to="130558522_1437593828_2214860828_1437593560" />
	<connection from="130558522_1437593828_2214860828_1437593560" to="130558522_1437593828_2214860828_1437593528" />
	<connection from="130558522_1437593828_2214860828_1437593528" to="130558522_1437593828_2214860828_1437593870" />
	<connection from="130558522_1437593828_2214860828_1437593870" to="130558522_1437593828_2214860828_1437593415" />
	<connection from="130558522_1437593828_2214860828_1437593415" to="130558522_1437593828_2214860828_1437593444" />
	<connection from="130558522_1437593828_2214860828_1437593444" to="130558522_1437593828_2214860828_1437593130" />
	<connection from="130558522_1437593828_2214860828_1437593130" to="130558522_1437593828_2214860828_1437593252" />
	<connection from="130558522_1437593828_2214860828_1437593252" to="130558522_1437593828_2214860828_1437593843" />
	<connection from="130558522_1437593828_2214860828_1437593843" to="130558522_1437593828_2214860828_2214860842" />
	<connection from="130558522_1437593828_2214860828_2214860842" to="211473861_2214860828_2215561598_2214860828" />
	<connection from="130558522_1437593828_2214860828_2214860842" to="130558522_2214860828_1437593828_2214860828" />
	<connection from="130558522_1437593828_2214860828_2214860842" to="130558522_2214860828_2215445166_2214860828" />
	<connection from="24267159_262732113_262731411_262732113" to="24267159_262732113_262731411_3074377367" />
	<connection from="24267159_262732113_262731411_3074377367" to="20899781_262731411_1438512755_262731411" />
	<connection from="24267159_262732113_262731411_3074377367" to="20899781_262731411_3236041649_262731411" />
	<connection from="303127227_3437378589_3437422820_3437378589" to="303127227_3437378589_3437422820_3437423041" />
	<connection from="303127227_3437378589_3437422820_3437423041" to="303127227_3437378589_3437422820_3437423029" />
	<connection from="303127227_3437378589_3437422820_3437423029" to="303127227_3437378589_3437422820_3437422805" />
	<connection from="303127227_3437378589_3437422820_3437422805" to="303127227_3437378589_3437422820_1107639268" />
	<connection from="303127227_3437378589_3437422820_1107639268" to="303127227_3437378589_3437422820_3437422842" />
	<connection from="303127227_3437378589_3437422820_3437422842" to="455677521_3437422820_3437413786_3437422820" />
	<connection from="95523248_262731948_1107639226_262731948" to="95523248_262731948_1107639226_4248529301" />
	<connection from="95523248_262731948_1107639226_4248529301" to="95523248_262731948_1107639226_4248529300" />
	<connection from="95523248_262731948_1107639226_4248529300" to="95523248_1107639226_262731948_1107639226" />
	<connection from="95523248_262731948_1107639226_4248529300" to="95523248_1107639226_3437413786_1107639226" />
	<connection from="95523248_262731948_1107639226_4248529300" to="95523261_1107639226_262731772_1107639226" />
	<connection from="95523260_3437422814_262731772_3437422814" to="95523260_3437422814_262731772_3437422799" />
	<connection from="95523260_3437422814_262731772_3437422799" to="95523260_3437422814_262731772_262728273" />
	<connection from="95523260_3437422814_262731772_262728273" to="95523260_3437422814_262731772_3437422794" />
	<connection from="95523260_3437422814_262731772_3437422794" to="95523260_3437422814_262731772_3437422858" />
	<connection from="95523260_3437422814_262731772_3437422858" to="95523260_262731772_3434244115_262731772" />
	<connection from="130558522_2214860828_1437593828_2214860828" to="130558522_2214860828_1437593828_2214860842" />
	<connection from="130558522_2214860828_1437593828_2214860842" to="130558522_2214860828_1437593828_1437593843" />
	<connection from="130558522_2214860828_1437593828_1437593843" to="130558522_2214860828_1437593828_1437593252" />
	<connection from="130558522_2214860828_1437593828_1437593252" to="130558522_2214860828_1437593828_1437593130" />
	<connection from="130558522_2214860828_1437593828_1437593130" to="130558522_2214860828_1437593828_1437593444" />
	<connection from="130558522_2214860828_1437593828_1437593444" to="130558522_2214860828_1437593828_1437593415" />
	<connection from="130558522_2214860828_1437593828_1437593415" to="130558522_2214860828_1437593828_1437593870" />
	<connection from="130558522_2214860828_1437593828_1437593870" to="130558522_2214860828_1437593828_1437593528" />
	<connection from="130558522_2214860828_1437593828_1437593528" to="130558522_2214860828_1437593828_1437593560" />
	<connection from="130558522_2214860828_1437593828_1437593560" to="130558522_2214860828_1437593828_1437593516" />
	<connection from="130558522_2214860828_1437593828_1437593516" to="211566035_1437593828_2215561675_1437593828" />
	<connection from="130558522_2214860828_1437593828_1437593516" to="130558522_1437593828_2214860828_1437593828" />
	<connection from="130558522_2214860828_1437593828_1437593516" to="130558522_1437593828_2215561675_1437593828" />
	<connection from="95523252_262731947_262731948_262731947" to="95523252_262731948_262731947_262731948" />
	<connection from="95523252_262731947_262731948_262731947" to="95523248_262731948_1107639226_262731948" />
	<connection from="130673494_1438512663_1438512827_1438512663" to="130673494_1438512663_1438512827_1438512701" />
	<connection from="130673494_1438512663_1438512827_1438512701" to="130673489_1438512827_1438512799_1438512827" />
	<connection from="130673494_1438512663_1438512827_1438512701" to="130673494_1438512827_1438512663_1438512827" />
	<connection from="130673494_1438512663_1438512827_1438512701" to="130673494_1438512827_1438512778_1438512827" />
	<connection from="130673483_1438512663_1438512817_1438512663" to="130673483_1438512817_1438512663_1438512817" />
	<connection from="130673483_1438512663_1438512817_1438512663" to="130673496_1438512817_1438512805_1438512817" />
	<connection from="95523256_3437422802_3437423014_3437422802" to="95523256_3437422802_3437423014_1107639219" />
	<connection from="95523256_3437422802_3437423014_1107639219" to="95523256_3437422802_3437423014_3437422796" />
	<connection from="95523256_3437422802_3437423014_3437422796" to="95523256_3437422802_3437423014_3437413775" />
	<connection from="95523256_3437422802_3437423014_3437413775" to="95523256_3437422802_3437423014_1107639233" />
	<connection from="95523256_3437422802_3437423014_1107639233" to="95523256_3437422802_3437423014_3437422866" />
	<connection from="95523256_3437422802_3437423014_3437422866" to="95523256_3437422802_3437423014_1107639246" />
	<connection from="95523256_3437422802_3437423014_1107639246" to="95523256_3437422802_3437423014_1107639190" />
	<connection from="95523256_3437422802_3437423014_1107639190" to="95523256_3437422802_3437423014_3437422844" />
	<connection from="95523256_3437422802_3437423014_3437422844" to="95523256_3437422802_3437423014_3437413783" />
	<connection from="95523256_3437422802_3437423014_3437413783" to="95523256_3437423014_3437422872_3437423014" />
	<connection from="95523256_3437422802_3437423014_3437413783" to="95523265_3437423014_3814804555_3437423014" />
	<connection from="130558522_2215561675_1437593522_2215561675" to="130558522_2215561675_1437593522_1437593304" />
	<connection from="130558522_2215561675_1437593522_1437593304" to="130558522_2215561675_1437593522_1437593809" />
	<connection from="130558522_2215561675_1437593522_1437593809" to="130558522_2215561675_1437593522_1437593274" />
	<connection from="130558522_2215561675_1437593522_1437593274" to="130558522_2215561675_1437593522_2215445309" />
	<connection from="130558522_2215561675_1437593522_2215445309" to="211555104_1437593522_2215445341_1437593522" />
	<connection from="130558522_2215561675_1437593522_2215445309" to="130558522_1437593522_2215561675_1437593522" />
	<connection from="77619032_899126525_262731942_899126525" to="77619032_899126525_262731942_1437593821" />
	<connection from="77619032_899126525_262731942_1437593821" to="77619032_899126525_262731942_3074377277" />
	<connection from="77619032_899126525_262731942_3074377277" to="77619032_899126525_262731942_899126561" />
	<connection from="77619032_899126525_262731942_899126561" to="77619032_899126525_262731942_899126417" />
	<connection from="77619032_899126525_262731942_899126417" to="77619032_899126525_262731942_899126483" />
	<connection from="77619032_899126525_262731942_899126483" to="77619032_899126525_262731942_899126537" />
	<connection from="77619032_899126525_262731942_899126537" to="77619032_899126525_262731942_5210862534" />
	<connection from="77619032_899126525_262731942_5210862534" to="77619032_899126525_262731942_899126577" />
	<connection from="77619032_899126525_262731942_899126577" to="95523259_262731942_262732093_262731942" />
	<connection from="77619032_899126525_262731942_899126577" to="77619032_262731942_899126525_262731942" />
	<connection from="95523258_3437423015_1107639185_3437423015" to="95523258_3437423015_1107639185_3437422833" />
	<connection from="95523258_3437423015_1107639185_3437422833" to="95523258_3437423015_1107639185_3437422806" />
	<connection from="95523258_3437423015_1107639185_3437422806" to="95523258_3437423015_1107639185_3437422852" />
	<connection from="95523258_3437423015_1107639185_3437422852" to="95523258_3437423015_1107639185_3437423008" />
	<connection from="95523258_3437423015_1107639185_3437423008" to="95523258_3437423015_1107639185_3437423013" />
	<connection from="95523258_3437423015_1107639185_3437423013" to="95523251_1107639185_1107639249_1107639185" />
	<connection from="20899781_262731411_1438512755_262731411" to="20899781_1438512755_3882980726_1438512755" />
	<connection from="20899781_262731411_1438512755_262731411" to="20899781_1438512755_262731411_1438512755" />
	<connection from="20899781_262731411_1438512755_262731411" to="130673496_1438512755_1438512805_1438512755" />
	<connection from="20899781_515107400_3236041649_515107400" to="20899781_515107400_3236041649_3074377538" />
	<connection from="20899781_515107400_3236041649_3074377538" to="20899781_515107400_3236041649_515107473" />
	<connection from="20899781_515107400_3236041649_515107473" to="20899781_515107400_3236041649_3074377428" />
	<connection from="20899781_515107400_3236041649_3074377428" to="20899781_515107400_3236041649_515107550" />
	<connection from="20899781_515107400_3236041649_515107550" to="20899781_515107400_3236041649_3074377252" />
	<connection from="20899781_515107400_3236041649_3074377252" to="20899781_515107400_3236041649_515108312" />
	<connection from="20899781_515107400_3236041649_515108312" to="20899781_515107400_3236041649_515108315" />
	<connection from="20899781_515107400_3236041649_515108315" to="20899781_515107400_3236041649_3074377533" />
	<connection from="20899781_515107400_3236041649_3074377533" to="20899781_515107400_3236041649_267049618" />
	<connection from="20899781_515107400_3236041649_267049618" to="20899781_515107400_3236041649_515107506" />
	<connection from="20899781_515107400_3236041649_515107506" to="20899781_515107400_3236041649_3074377434" />
	<connection from="20899781_515107400_3236041649_3074377434" to="317357517_3236041649_1438512834_3236041649" />
	<connection from="20899781_515107400_3236041649_3074377434" to="20899781_3236041649_262731411_3236041649" />
	<connection from="20899781_515107400_3236041649_3074377434" to="20899781_3236041649_515107400_3236041649" />
	<connection from="130673494_1438512827_1438512778_1438512827" to="130673494_1438512827_1438512778_1438512718" />
	<connection from="130673494_1438512827_1438512778_1438512718" to="130673494_1438512827_1438512778_1438512875" />
	<connection from="130673494_1438512827_1438512778_1438512875" to="130673494_1438512827_1438512778_1438512902" />
	<connection from="130673494_1438512827_1438512778_1438512902" to="130673494_1438512827_1438512778_1438512913" />
	<connection from="130673494_1438512827_1438512778_1438512913" to="130673494_1438512827_1438512778_1438512706" />
	<connection from="130673494_1438512827_1438512778_1438512706" to="130673494_1438512827_1438512778_1438512851" />
	<connection from="130673494_1438512827_1438512778_1438512851" to="130673494_1438512827_1438512778_1438512780" />
	<connection from="130673494_1438512827_1438512778_1438512780" to="130673494_1438512827_1438512778_1438512697" />
	<connection from="130673494_1438512827_1438512778_1438512697" to="130673494_1438512827_1438512778_1438512909" />
	<connection from="130673494_1438512827_1438512778_1438512909" to="130673494_1438512827_1438512778_1438512739" />
	<connection from="130673494_1438512827_1438512778_1438512739" to="130673494_1438512827_1438512778_1438512735" />
	<connection from="130673494_1438512827_1438512778_1438512735" to="130673494_1438512827_1438512778_1438512906" />
	<connection from="130673494_1438512827_1438512778_1438512906" to="130673494_1438512827_1438512778_1438512707" />
	<connection from="130673494_1438512827_1438512778_1438512707" to="130673494_1438512827_1438512778_1438512857" />
	<connection from="130673494_1438512827_1438512778_1438512857" to="130673494_1438512827_1438512778_1438512832" />
	<connection from="130673494_1438512827_1438512778_1438512832" to="130673494_1438512827_1438512778_1438512757" />
	<connection from="130673494_1438512827_1438512778_1438512757" to="130673494_1438512827_1438512778_1438512907" />
	<connection from="130673494_1438512827_1438512778_1438512907" to="130673494_1438512827_1438512778_1438512908" />
	<connection from="130673494_1438512827_1438512778_1438512908" to="130673494_1438512778_1438512827_1438512778" />
	<connection from="211473861_2215533331_2215561598_2215533331" to="211473861_2215533331_2215561598_2215533336" />
	<connection from="211473861_2215533331_2215561598_2215533336" to="211473861_2215533331_2215561598_2215533340" />
	<connection from="211473861_2215533331_2215561598_2215533340" to="211473861_2215561598_2214860828_2215561598" />
	<connection from="211473861_2215533331_2215561598_2215533340" to="211473861_2215561598_2215533331_2215561598" />
	<connection from="211473861_2215533331_2215561598_2215533340" to="211566034_2215561598_2215561604_2215561598" />
	<connection from="384943712_3882980861_3882980755_3882980861" to="20899781_3882980755_3437413786_3882980755" />
	<connection from="384943712_3882980861_3882980755_3882980861" to="384943712_3882980755_3882980861_3882980755" />
	<connection from="384943712_3882980861_3882980755_3882980861" to="20899781_3882980755_3882980726_3882980755" />
	<connection from="95523256_3437423014_3437422872_3437423014" to="95523256_3437423014_3437422872_3437422870" />
	<connection from="95523256_3437423014_3437422872_3437422870" to="95523256_3437423014_3437422872_3437423050" />
	<connection from="95523256_3437423014_3437422872_3437423050" to="95523256_3437423014_3437422872_1107639263" />
	<connection from="95523256_3437423014_3437422872_1107639263" to="95523256_3437423014_3437422872_3437423039" />
	<connection from="95523256_3437423014_3437422872_3437423039" to="95523256_3437423014_3437422872_3437423033" />
	<connection from="95523256_3437423014_3437422872_3437423033" to="95523256_3437423014_3437422872_3437413789" />
	<connection from="95523256_3437423014_3437422872_3437413789" to="95523256_3437423014_3437422872_1107639277" />
	<connection from="95523256_3437423014_3437422872_1107639277" to="95523256_3437423014_3437422872_3437422847" />
	<connection from="95523256_3437423014_3437422872_3437422847" to="95523256_3437423014_3437422872_1107639197" />
	<connection from="95523256_3437423014_3437422872_1107639197" to="95523256_3437423014_3437422872_913324643" />
	<connection from="95523256_3437423014_3437422872_913324643" to="95523256_3437423014_3437422872_3437422857" />
	<connection from="95523256_3437423014_3437422872_3437422857" to="95523256_3437423014_3437422872_3437423020" />
	<connection from="95523256_3437423014_3437422872_3437423020" to="95523256_3437423014_3437422872_3437423010" />
	<connection from="95523256_3437423014_3437422872_3437423010" to="95523256_3437423014_3437422872_3437422793" />
	<connection from="95523256_3437423014_3437422872_3437422793" to="95523256_3437423014_3437422872_3437423007" />
	<connection from="95523256_3437423014_3437422872_3437423007" to="95523256_3437423014_3437422872_3437413784" />
	<connection from="95523256_3437423014_3437422872_3437413784" to="95523256_3437422872_1437593376_3437422872" />
	<connection from="95523255_3437423015_3814804555_3437423015" to="95523255_3437423015_3814804555_3437422813" />
	<connection from="95523255_3437423015_3814804555_3437422813" to="455677523_3814804555_1107639228_3814804555" />
	<connection from="336683275_3209123009_4248540519_3209123009" to="336683275_4248540519_3437422814_4248540519" />
	<connection from="24267153_262732093_1437593376_262732093" to="24267153_262732093_1437593376_1487158501" />
	<connection from="24267153_262732093_1437593376_1487158501" to="24267153_262732093_1437593376_262732091" />
	<connection from="24267153_262732093_1437593376_262732091" to="24267153_262732093_1437593376_262732092" />
	<connection from="24267153_262732093_1437593376_262732092" to="95523255_1437593376_3437423015_1437593376" />
	<connection from="24267153_262732093_1437593376_262732092" to="77619032_1437593376_2215445341_1437593376" />
	<connection from="24267153_262732093_1437593376_262732092" to="24267153_1437593376_262732093_1437593376" />
	<connection from="336683280_3437413788_1107639228_3437413788" to="336683280_3437413788_1107639228_3437422816" />
	<connection from="336683280_3437413788_1107639228_3437422816" to="336683280_3437413788_1107639228_3437413774" />
	<connection from="336683280_3437413788_1107639228_3437413774" to="336683280_3437413788_1107639228_1107639232" />
	<connection from="336683280_3437413788_1107639228_1107639232" to="336683280_3437413788_1107639228_3437423028" />
	<connection from="336683280_3437413788_1107639228_3437423028" to="336683280_3437413788_1107639228_1107639218" />
	<connection from="336683280_3437413788_1107639228_1107639218" to="336683280_3437413788_1107639228_3437423044" />
	<connection from="336683280_3437413788_1107639228_3437423044" to="336683280_3437413788_1107639228_2215533366" />
	<connection from="336683280_3437413788_1107639228_2215533366" to="336683280_3437413788_1107639228_3437422868" />
	<connection from="336683280_3437413788_1107639228_3437422868" to="336683280_3437413788_1107639228_2215533368" />
	<connection from="336683280_3437413788_1107639228_2215533368" to="336683280_3437413788_1107639228_3437413779" />
	<connection from="336683280_3437413788_1107639228_3437413779" to="336683280_3437413788_1107639228_1107639207" />
	<connection from="336683280_3437413788_1107639228_1107639207" to="336683280_3437413788_1107639228_3437422836" />
	<connection from="336683280_3437413788_1107639228_3437422836" to="336683280_3437413788_1107639228_2215533371" />
	<connection from="336683280_3437413788_1107639228_2215533371" to="336683280_3437413788_1107639228_3437423018" />
	<connection from="336683280_3437413788_1107639228_3437423018" to="336683280_3437413788_1107639228_1107639173" />
	<connection from="336683280_3437413788_1107639228_1107639173" to="336683280_3437413788_1107639228_1107639267" />
	<connection from="336683280_3437413788_1107639228_1107639267" to="336683280_3437413788_1107639228_3437423038" />
	<connection from="336683280_3437413788_1107639228_3437423038" to="336683280_3437413788_1107639228_3437422795" />
	<connection from="336683280_3437413788_1107639228_3437422795" to="336683280_3437413788_1107639228_3437423009" />
	<connection from="336683280_3437413788_1107639228_3437423009" to="336683280_3437413788_1107639228_3437422835" />
	<connection from="336683280_3437413788_1107639228_3437422835" to="336683280_3437413788_1107639228_3437422831" />
	<connection from="336683280_3437413788_1107639228_3437422831" to="336683280_3437413788_1107639228_3437422808" />
	<connection from="336683280_3437413788_1107639228_3437422808" to="336683280_3437413788_1107639228_3437422999" />
	<connection from="336683280_3437413788_1107639228_3437422999" to="455677523_1107639228_1107639229_1107639228" />
	<connection from="379745860_262732010_262731946_262732010" to="379745860_262732010_262731946_262732011" />
	<connection from="379745860_262732010_262731946_262732011" to="379745860_262732010_262731946_262732012" />
	<connection from="379745860_262732010_262731946_262732012" to="379745860_262732010_262731946_1487158523" />
	<connection from="379745860_262732010_262731946_1487158523" to="379745860_262732010_262731946_262732013" />
	<connection from="379745860_262732010_262731946_262732013" to="379745860_262732010_262731946_1487158502" />
	<connection from="379745860_262732010_262731946_1487158502" to="379745860_262732010_262731946_1487158497" />
	<connection from="379745860_262732010_262731946_1487158497" to="379745860_262731946_262732010_262731946" />
	<connection from="379745860_262732010_262731946_1487158497" to="95523259_262731946_1438512667_262731946" />
	<connection from="379745860_262732010_262731946_1487158497" to="95523259_262731946_262732093_262731946" />
	<connection from="24267168_262732117_1924339023_262732117" to="24267168_262732117_1924339023_262732154" />
	<connection from="24267168_262732117_1924339023_262732154" to="24267168_262732117_1924339023_1438512738" />
	<connection from="24267168_262732117_1924339023_1438512738" to="24267168_262732117_1924339023_262732155" />
	<connection from="24267168_262732117_1924339023_262732155" to="24267168_262732117_1924339023_262732156" />
	<connection from="24267168_262732117_1924339023_262732156" to="24267168_262732117_1924339023_262732157" />
	<connection from="95523261_1107639226_262731772_1107639226" to="95523261_1107639226_262731772_1107639195" />
	<connection from="95523261_1107639226_262731772_1107639195" to="95523261_1107639226_262731772_3437422998" />
	<connection from="95523261_1107639226_262731772_3437422998" to="95523261_1107639226_262731772_3437422860" />
	<connection from="95523261_1107639226_262731772_3437422860" to="95523261_1107639226_262731772_1107639275" />
	<connection from="95523261_1107639226_262731772_1107639275" to="95523261_1107639226_262731772_3077654056" />
	<connection from="95523261_1107639226_262731772_3077654056" to="95523261_1107639226_262731772_3437422824" />