<edges>
	<edge id="20899781_1438512755_3882980726_1438512755" from="1438512755" to="3882980726" numLanes="1" speed="22.22" />
	<edge id="95523248_1107639226_262731948_1107639226" from="1107639226" to="4248529300" numLanes="1" speed="8.33" />
	<edge id="95523248_1107639226_262731948_4248529300" from="4248529300" to="4248529301" numLanes="1" speed="8.33" />
	<edge id="95523248_1107639226_262731948_4248529301" from="4248529301" to="262731948" numLanes="1" speed="8.33" />
	<edge id="95523255_1437593376_3437423015_1437593376" from="1437593376" to="3437422804" numLanes="2" speed="18.06" />
	<edge id="95523255_1437593376_3437423015_3437422804" from="3437422804" to="3437422837" numLanes="2" speed="18.06" />
	<edge id="95523255_1437593376_3437423015_3437422837" from="3437422837" to="3437422997" numLanes="2" speed="18.06" />
	<edge id="95523255_1437593376_3437423015_3437422997" from="3437422997" to="3437423011" numLanes="2" speed="18.06" />
	<edge id="95523255_1437593376_3437423015_3437423011" from="3437423011" to="3437423023" numLanes="2" speed="18.06" />
	<edge id="95523255_1437593376_3437423015_3437423023" from="3437423023" to="262731741" numLanes="2" speed="18.06" />
	<edge id="95523255_1437593376_3437423015_262731741" from="262731741" to="1107639186" numLanes="2" speed="18.06" />
	<edge id="95523255_1437593376_3437423015_1107639186" from="1107639186" to="3437422881" numLanes="2" speed="18.06" />
	<edge id="95523255_1437593376_3437423015_3437422881" from="3437422881" to="3437422863" numLanes="2" speed="18.06" />
	<edge id="95523255_1437593376_3437423015_3437422863" from="3437422863" to="3074377262" numLanes="2" speed="18.06" />
	<edge id="95523255_1437593376_3437423015_3074377262" from="3074377262" to="3437413771" numLanes="2" speed="18.06" />
	<edge id="95523255_1437593376_3437423015_3437413771" from="3437413771" to="3074377199" numLanes="2" speed="18.06" />
	<edge id="95523255_1437593376_3437423015_3074377199" from="3074377199" to="1107639289" numLanes="2" speed="18.06" />
	<edge id="95523255_1437593376_3437423015_1107639289" from="1107639289" to="3437423015" numLanes="2" speed="18.06" />
	<edge id="130673466_1438512876_1438512667_1438512876" from="1438512876" to="1438512753" numLanes="1" speed="8.33" />
	<edge id="130673466_1438512876_1438512667_1438512753" from="1438512753" to="1438512896" numLanes="1" speed="8.33" />
	<edge id="130673466_1438512876_1438512667_1438512896" from="1438512896" to="1438512868" numLanes="1" speed="8.33" />
	<edge id="130673466_1438512876_1438512667_1438512868" from="1438512868" to="1438512841" numLanes="1" speed="8.33" />
	<edge id="130673466_1438512876_1438512667_1438512841" from="1438512841" to="1438512736" numLanes="1" speed="8.33" />
	<edge id="130673466_1438512876_1438512667_1438512736" from="1438512736" to="1438512849" numLanes="1" speed="8.33" />
	<edge id="130673466_1438512876_1438512667_1438512849" from="1438512849" to="1438512667" numLanes="1" speed="8.33" />
	<edge id="455677524_3437422843_3437422802_3437422843" from="3437422843" to="3437422882" numLanes="2" speed="16.67" />
	<edge id="455677524_3437422843_3437422802_3437422882" from="3437422882" to="3437413777" numLanes="2" speed="16.67" />
	<edge id="455677524_3437422843_3437422802_3437413777" from="3437413777" to="3437423035" numLanes="2" speed="16.67" />
	<edge id="455677524_3437422843_3437422802_3437423035" from="3437423035" to="3437422802" numLanes="2" speed="16.67" />
	<edge id="303127261_3074377292_262732113_3074377292" from="3074377292" to="3074377302" numLanes="1" speed="8.33" />
	<edge id="303127261_3074377292_262732113_3074377302" from="3074377302" to="3074377256" numLanes="1" speed="8.33" />
	<edge id="303127261_3074377292_262732113_3074377256" from="3074377256" to="3074377251" numLanes="1" speed="8.33" />
	<edge id="303127261_3074377292_262732113_3074377251" from="3074377251" to="3074377193" numLanes="1" speed="8.33" />
	<edge id="303127261_3074377292_262732113_3074377193" from="3074377193" to="3074377354" numLanes="1" speed="8.33" />
	<edge id="303127261_3074377292_262732113_3074377354" from="3074377354" to="3074377321" numLanes="1" speed="8.33" />
	<edge id="303127261_3074377292_262732113_3074377321" from="3074377321" to="3074377288" numLanes="1" speed="8.33" />
	<edge id="303127261_3074377292_262732113_3074377288" from="3074377288" to="3074377550" numLanes="1" speed="8.33" />
	<edge id="303127261_3074377292_262732113_3074377550" from="3074377550" to="262732113" numLanes="1" speed="8.33" />
	<edge id="77619032_1437593376_2215445341_1437593376" from="1437593376" to="913324571" numLanes="1" speed="13.89" />
	<edge id="77619032_1437593376_2215445341_913324571" from="913324571" to="2215445340" numLanes="1" speed="13.89" />
	<edge id="77619032_1437593376_2215445341_2215445340" from="2215445340" to="2215445341" numLanes="1" speed="13.89" />
	<edge id="95523252_262731948_262731947_262731948" from="262731948" to="262731947" numLanes="1" speed="8.33" />
	<edge id="95523267_3437378589_3437422843_3437378589" from="3437378589" to="3437379123" numLanes="2" speed="18.06" />
	<edge id="95523267_3437378589_3437422843_3437379123" from="3437379123" to="1107639259" numLanes="2" speed="18.06" />
	<edge id="95523267_3437378589_3437422843_1107639259" from="1107639259" to="3437422884" numLanes="2" speed="18.06" />
	<edge id="95523267_3437378589_3437422843_3437422884" from="3437422884" to="3437422843" numLanes="2" speed="18.06" />
	<edge id="455677521_3437422820_3437413786_3437422820" from="3437422820" to="3437422819" numLanes="2" speed="18.06" />
	<edge id="455677521_3437422820_3437413786_3437422819" from="3437422819" to="3437413786" numLanes="2" speed="18.06" />
	<edge id="455677523_1107639228_1107639229_1107639228" from="1107639228" to="3437422803" numLanes="2" speed="18.06" />
	<edge id="455677523_1107639228_1107639229_3437422803" from="3437422803" to="1107639257" numLanes="2" speed="18.06" />
	<edge id="455677523_1107639228_1107639229_1107639257" from="1107639257" to="3437413772" numLanes="2" speed="18.06" />
	<edge id="455677523_1107639228_1107639229_3437413772" from="3437413772" to="1107639240" numLanes="2" speed="18.06" />
	<edge id="455677523_1107639228_1107639229_1107639240" from="1107639240" to="3437413790" numLanes="2" speed="18.06" />
	<edge id="455677523_1107639228_1107639229_3437413790" from="3437413790" to="3437422891" numLanes="2" speed="18.06" />
	<edge id="455677523_1107639228_1107639229_3437422891" from="3437422891" to="1107639229" numLanes="2" speed="18.06" />
	<edge id="130558522_1437593828_2214860828_1437593828" from="1437593828" to="1437593516" numLanes="1" speed="13.89" />
	<edge id="130558522_1437593828_2214860828_1437593516" from="1437593516" to="1437593560" numLanes="1" speed="13.89" />
	<edge id="130558522_1437593828_2214860828_1437593560" from="1437593560" to="1437593528" numLanes="1" speed="13.89" />
	<edge id="130558522_1437593828_2214860828_1437593528" from="1437593528" to="1437593870" numLanes="1" speed="13.89" />
	<edge id="130558522_1437593828_2214860828_1437593870" from="1437593870" to="1437593415" numLanes="1" speed="13.89" />
	<edge id="130558522_1437593828_2214860828_1437593415" from="1437593415" to="1437593444" numLanes="1" speed="13.89" />
	<edge id="130558522_1437593828_2214860828_1437593444" from="1437593444" to="1437593130" numLanes="1" speed="13.89" />
	<edge id="130558522_1437593828_2214860828_1437593130" from="1437593130" to="1437593252" numLanes="1" speed="13.89" />
	<edge id="130558522_1437593828_2214860828_1437593252" from="1437593252" to="1437593843" numLanes="1" speed="13.89" />
	<edge id="130558522_1437593828_2214860828_1437593843" from="1437593843" to="2214860842" numLanes="1" speed="13.89" />
	<edge id="130558522_1437593828_2214860828_2214860842" from="2214860842" to="2214860828" numLanes="1" speed="13.89" />
	<edge id="24267159_262732113_262731411_262732113" from="262732113" to="3074377367" numLanes="2" speed="8.33" />
	<edge id="24267159_262732113_262731411_3074377367" from="3074377367" to="262731411" numLanes="2" speed="8.33" />
	<edge id="303127227_3437378589_3437422820_3437378589" from="3437378589" to="3437423041" numLanes="2" speed="18.06" />
	<edge id="303127227_3437378589_3437422820_3437423041" from="3437423041" to="3437423029" numLanes="2" speed="18.06" />
	<edge id="303127227_3437378589_3437422820_3437423029" from="3437423029" to="3437422805" numLanes="2" speed="18.06" />
	<edge id="303127227_3437378589_3437422820_3437422805" from="3437422805" to="1107639268" numLanes="2" speed="18.06" />
	<edge id="303127227_3437378589_3437422820_1107639268" from="1107639268" to="3437422842" numLanes="2" speed="18.06" />
	<edge id="303127227_3437378589_3437422820_3437422842" from="3437422842" to="3437422820" numLanes="2" speed="18.06" />
	<edge id="95523248_262731948_1107639226_262731948" from="262731948" to="4248529301" numLanes="1" speed="8.33" />
	<edge id="95523248_262731948_1107639226_4248529301" from="4248529301" to="4248529300" numLanes="1" speed="8.33" />
	<edge id="95523248_262731948_1107639226_4248529300" from="4248529300" to="1107639226" numLanes="1" speed="8.33" />
	<edge id="95523260_3437422814_262731772_3437422814" from="3437422814" to="3437422799" numLanes="2" speed="19.44" />
	<edge id="95523260_3437422814_262731772_3437422799" from="3437422799" to="262728273" numLanes="2" speed="19.44" />
	<edge id="95523260_3437422814_262731772_262728273" from="262728273" to="3437422794" numLanes="2" speed="19.44" />
	<edge id="95523260_3437422814_262731772_3437422794" from="3437422794" to="3437422858" numLanes="2" speed="19.44" />
	<edge id="95523260_3437422814_262731772_3437422858" from="3437422858" to="262731772" numLanes="2" speed="19.44" />
	<edge id="130558522_2214860828_1437593828_2214860828" from="2214860828" to="2214860842" numLanes="1" speed="13.89" />
	<edge id="130558522_2214860828_1437593828_2214860842" from="2214860842" to="1437593843" numLanes="1" speed="13.89" />
	<edge id="130558522_2214860828_1437593828_1437593843" from="1437593843" to="1437593252" numLanes="1" speed="13.89" />
	<edge id="130558522_2214860828_1437593828_1437593252" from="1437593252" to="1437593130" numLanes="1" speed="13.89" />
	<edge id="130558522_2214860828_1437593828_1437593130" from="1437593130" to="1437593444" numLanes="1" speed="13.89" />
	<edge id="130558522_2214860828_1437593828_1437593444" from="1437593444" to="1437593415" numLanes="1" speed="13.89" />
	<edge id="130558522_2214860828_1437593828_1437593415" from="1437593415" to="1437593870" numLanes="1" speed="13.89" />
	<edge id="130558522_2214860828_1437593828_1437593870" from="1437593870" to="1437593528" numLanes="1" speed="13.89" />
	<edge id="130558522_2214860828_1437593828_1437593528" from="1437593528" to="1437593560" numLanes="1" speed="13.89" />
	<edge id="130558522_2214860828_1437593828_1437593560" from="1437593560" to="1437593516" numLanes="1" speed="13.89" />
	<edge id="130558522_2214860828_1437593828_1437593516" from="1437593516" to="1437593828" numLanes="1" speed="13.89" />
	<edge id="95523252_262731947_262731948_262731947" from="262731947" to="262731948" numLanes="1" speed="8.33" />
	<edge id="130673494_1438512663_1438512827_1438512663" from="1438512663" to="1438512701" numLanes="1" speed="13.89" />
	<edge id="130673494_1438512663_1438512827_1438512701" from="1438512701" to="1438512827" numLanes="1" speed="13.89" />
	<edge id="130673483_1438512663_1438512817_1438512663" from="1438512663" to="1438512817" numLanes="1" speed="13.89" />
	<edge id="95523256_3437422802_3437423014_3437422802" from="3437422802" to="1107639219" numLanes="2" speed="18.06" />
	<edge id="95523256_3437422802_3437423014_1107639219" from="1107639219" to="3437422796" numLanes="2" speed="18.06" />
	<edge id="95523256_3437422802_3437423014_3437422796" from="3437422796" to="3437413775" numLanes="2" speed="18.06" />
	<edge id="95523256_3437422802_3437423014_3437413775" from="3437413775" to="1107639233" numLanes="2" speed="18.06" />
	<edge id="95523256_3437422802_3437423014_1107639233" from="1107639233" to="3437422866" numLanes="2" speed="18.06" />
	<edge id="95523256_3437422802_3437423014_3437422866" from="3437422866" to="1107639246" numLanes="2" speed="18.06" />
	<edge id="95523256_3437422802_3437423014_1107639246" from="1107639246" to="1107639190" numLanes="2" speed="18.06" />
	<edge id="95523256_3437422802_3437423014_1107639190" from="1107639190" to="3437422844" numLanes="2" speed="18.06" />
	<edge id="95523256_3437422802_3437423014_3437422844" from="3437422844" to="3437413783" numLanes="2" speed="18.06" />
	<edge id="95523256_3437422802_3437423014_3437413783" from="3437413783" to="3437423014" numLanes="2" speed="18.06" />
	<edge id="130558522_2215561675_1437593522_2215561675" from="2215561675" to="1437593304" numLanes="1" speed="13.89" />
	<edge id="130558522_2215561675_1437593522_1437593304" from="1437593304" to="1437593809" numLanes="1" speed="13.89" />
	<edge id="130558522_2215561675_1437593522_1437593809" from="1437593809" to="1437593274" numLanes="1" speed="13.89" />
	<edge id="130558522_2215561675_1437593522_1437593274" from="1437593274" to="2215445309" numLanes="1" speed="13.89" />
	<edge id="130558522_2215561675_1437593522_2215445309" from="2215445309" to="1437593522" numLanes="1" speed="13.89" />
	<edge id="77619032_899126525_262731942_899126525" from="899126525" to="1437593821" numLanes="1" speed="13.89" />
	<edge id="77619032_899126525_262731942_1437593821" from="1437593821" to="3074377277" numLanes="1" speed="13.89" />
	<edge id="77619032_899126525_262731942_3074377277" from="3074377277" to="899126561" numLanes="1" speed="13.89" />
	<edge id="77619032_899126525_262731942_899126561" from="899126561" to="899126417" numLanes="1" speed="13.89" />
	<edge id="77619032_899126525_262731942_899126417" from="899126417" to="899126483" numLanes="1" speed="13.89" />
	<edge id="77619032_899126525_262731942_899126483" from="899126483" to="899126537" numLanes="1" speed="13.89" />
	<edge id="77619032_899126525_262731942_899126537" from="899126537" to="5210862534" numLanes="1" speed="13.89" />
	<edge id="77619032_899126525_262731942_5210862534" from="5210862534" to="899126577" numLanes="1" speed="13.89" />
	<edge id="77619032_899126525_262731942_899126577" from="899126577" to="262731942" numLanes="1" speed="13.89" />
	<edge id="95523258_3437423015_1107639185_3437423015" from="3437423015" to="3437422833" numLanes="2" speed="18.06" />
	<edge id="95523258_3437423015_1107639185_3437422833" from="3437422833" to="3437422806" numLanes="2" speed="18.06" />
	<edge id="95523258_3437423015_1107639185_3437422806" from="3437422806" to="3437422852" numLanes="2" speed="18.06" />
	<edge id="95523258_3437423015_1107639185_3437422852" from="3437422852" to="3437423008" numLanes="2" speed="18.06" />
	<edge id="95523258_3437423015_1107639185_3437423008" from="3437423008" to="3437423013" numLanes="2" speed="18.06" />
	<edge id="95523258_3437423015_1107639185_3437423013" from="3437423013" to="1107639185" numLanes="2" speed="18.06" />
	<edge id="20899781_262731411_1438512755_262731411" from="262731411" to="1438512755" numLanes="1" speed="22.22" />
	<edge id="20899781_515107400_3236041649_515107400" from="515107400" to="3074377538" numLanes="1" speed="22.22" />
	<edge id="20899781_515107400_3236041649_3074377538" from="3074377538" to="515107473" numLanes="1" speed="22.22" />
	<edge id="20899781_515107400_3236041649_515107473" from="515107473" to="3074377428" numLanes="1" speed="22.22" />
	<edge id="20899781_515107400_3236041649_3074377428" from="3074377428" to="515107550" numLanes="1" speed="22.22" />
	<edge id="20899781_515107400_3236041649_515107550" from="515107550" to="3074377252" numLanes="1" speed="22.22" />
	<edge id="20899781_515107400_3236041649_3074377252" from="3074377252" to="515108312" numLanes="1" speed="22.22" />
	<edge id="20899781_515107400_3236041649_515108312" from="515108312" to="515108315" numLanes="1" speed="22.22" />
	<edge id="20899781_515107400_3236041649_515108315" from="515108315" to="3074377533" numLanes="1" speed="22.22" />
	<edge id="20899781_515107400_3236041649_3074377533" from="3074377533" to="267049618" numLanes="1" speed="22.22" />
	<edge id="20899781_515107400_3236041649_267049618" from="267049618" to="515107506" numLanes="1" speed="22.22" />
	<edge id="20899781_515107400_3236041649_515107506" from="515107506" to="3074377434" numLanes="1" speed="22.22" />
	<edge id="20899781_515107400_3236041649_3074377434" from="3074377434" to="3236041649" numLanes="1" speed="22.22" />
	<edge id="130673494_1438512827_1438512778_1438512827" from="1438512827" to="1438512718" numLanes="1" speed="13.89" />
	<edge id="130673494_1438512827_1438512778_1438512718" from="1438512718" to="1438512875" numLanes="1" speed="13.89" />
	<edge id="130673494_1438512827_1438512778_1438512875" from="1438512875" to="1438512902" numLanes="1" speed="13.89" />
	<edge id="130673494_1438512827_1438512778_1438512902" from="1438512902" to="1438512913" numLanes="1" speed="13.89" />
	<edge id="130673494_1438512827_1438512778_1438512913" from="1438512913" to="1438512706" numLanes="1" speed="13.89" />
	<edge id="130673494_1438512827_1438512778_1438512706" from="1438512706" to="1438512851" numLanes="1" speed="13.89" />
	<edge id="130673494_1438512827_1438512778_1438512851" from="1438512851" to="1438512780" numLanes="1" speed="13.89" />
	<edge id="130673494_1438512827_1438512778_1438512780" from="1438512780" to="1438512697" numLanes="1" speed="13.89" />
	<edge id="130673494_1438512827_1438512778_1438512697" from="1438512697" to="1438512909" numLanes="1" speed="13.89" />
	<edge id="130673494_1438512827_1438512778_1438512909" from="1438512909" to="1438512739" numLanes="1" speed="13.89" />
	<edge id="130673494_1438512827_1438512778_1438512739" from="1438512739" to="1438512735" numLanes="1" speed="13.89" />
	<edge id="130673494_1438512827_1438512778_1438512735" from="1438512735" to="1438512906" numLanes="1" speed="13.89" />
	<edge id="130673494_1438512827_1438512778_1438512906" from="1438512906" to="1438512707" numLanes="1" speed="13.89" />
	<edge id="130673494_1438512827_1438512778_1438512707" from="1438512707" to="1438512857" numLanes="1" speed="13.89" />
	<edge id="130673494_1438512827_1438512778_1438512857" from="1438512857" to="1438512832" numLanes="1" speed="13.89" />
	<edge id="130673494_1438512827_1438512778_1438512832" from="1438512832" to="1438512757" numLanes="1" speed="13.89" />
	<edge id="130673494_1438512827_1438512778_1438512757" from="1438512757" to="1438512907" numLanes="1" speed="13.89" />
	<edge id="130673494_1438512827_1438512778_1438512907" from="1438512907" to="1438512908" numLanes="1" speed="13.89" />
	<edge id="130673494_1438512827_1438512778_1438512908" from="1438512908" to="1438512778" numLanes="1" speed="13.89" />
	<edge id="211473861_2215533331_2215561598_2215533331" from="2215533331" to="2215533336" numLanes="1" speed="13.89" />
	<edge id="211473861_2215533331_2215561598_2215533336" from="2215533336" to="2215533340" numLanes="1" speed="13.89" />
	<edge id="211473861_2215533331_2215561598_2215533340" from="2215533340" to="2215561598" numLanes="1" speed="13.89" />
	<edge id="384943712_3882980861_3882980755_3882980861" from="3882980861" to="3882980755" numLanes="1" speed="8.33" />
	<edge id="95523256_3437423014_3437422872_3437423014" from="3437423014" to="3437422870" numLanes="2" speed="18.06" />
	<edge id="95523256_3437423014_3437422872_3437422870" from="3437422870" to="3437423050" numLanes="2" speed="18.06" />
	<edge id="95523256_3437423014_3437422872_3437423050" from="3437423050" to="1107639263" numLanes="2" speed="18.06" />
	<edge id="95523256_3437423014_3437422872_1107639263" from="1107639263" to="3437423039" numLanes="2" speed="18.06" />
	<edge id="95523256_3437423014_3437422872_3437423039" from="3437423039" to="3437423033" numLanes="2" speed="18.06" />
	<edge id="95523256_3437423014_3437422872_3437423033" from="3437423033" to="3437413789" numLanes="2" speed="18.06" />
	<edge id="95523256_3437423014_3437422872_3437413789" from="3437413789" to="1107639277" numLanes="2" speed="18.06" />
	<edge id="95523256_3437423014_3437422872_1107639277" from="1107639277" to="3437422847" numLanes="2" speed="18.06" />
	<edge id="95523256_3437423014_3437422872_3437422847" from="3437422847" to="1107639197" numLanes="2" speed="18.06" />
	<edge id="95523256_3437423014_3437422872_1107639197" from="1107639197" to="913324643" numLanes="2" speed="18.06" />
	<edge id="95523256_3437423014_3437422872_913324643" from="913324643" to="3437422857" numLanes="2" speed="18.06" />
	<edge id="95523256_3437423014_3437422872_3437422857" from="3437422857" to="3437423020" numLanes="2" speed="18.06" />
	<edge id="95523256_3437423014_3437422872_3437423020" from="3437423020" to="3437423010" numLanes="2" speed="18.06" />
	<edge id="95523256_3437423014_3437422872_3437423010" from="3437423010" to="3437422793" numLanes="2" speed="18.06" />
	<edge id="95523256_3437423014_3437422872_3437422793" from="3437422793" to="3437423007" numLanes="2" speed="18.06" />
	<edge id="95523256_3437423014_3437422872_3437423007" from="3437423007" to="3437413784" numLanes="2" speed="18.06" />
	<edge id="95523256_3437423014_3437422872_3437413784" from="3437413784" to="3437422872" numLanes="2" speed="18.06" />
	<edge id="95523255_3437423015_3814804555_3437423015" from="3437423015" to="3437422813" numLanes="2" speed="18.06" />
	<edge id="95523255_3437423015_3814804555_3437422813" from="3437422813" to="3814804555" numLanes="2" speed="18.06" />
	<edge id="336683275_3209123009_4248540519_3209123009" from="3209123009" to="4248540519" numLanes="2" speed="27.78" />
	<edge id="24267153_262732093_1437593376_262732093" from="262732093" to="1487158501" numLanes="1" speed="8.33" />
	<edge id="24267153_262732093_1437593376_1487158501" from="1487158501" to="262732091" numLanes="1" speed="8.33" />
	<edge id="24267153_262732093_1437593376_262732091" from="262732091" to="262732092" numLanes="1" speed="8.33" />
	<edge id="24267153_262732093_1437593376_262732092" from="262732092" to="1437593376" numLanes="1" speed="8.33" />
	<edge id="336683280_3437413788_1107639228_3437413788" from="3437413788" to="3437422816" numLanes="2" speed="18.06" />
	<edge id="336683280_3437413788_1107639228_3437422816" from="3437422816" to="3437413774" numLanes="2" speed="18.06" />
	<edge id="336683280_3437413788_1107639228_3437413774" from="3437413774" to="1107639232" numLanes="2" speed="18.06" />
	<edge id="336683280_3437413788_1107639228_1107639232" from="1107639232" to="3437423028" numLanes="2" speed="18.06" />
	<edge id="336683280_3437413788_1107639228_3437423028" from="3437423028" to="1107639218" numLanes="2" speed="18.06" />
	<edge id="336683280_3437413788_1107639228_1107639218" from="1107639218" to="3437423044" numLanes="2" speed="18.06" />
	<edge id="336683280_3437413788_1107639228_3437423044" from="3437423044" to="2215533366" numLanes="2" speed="18.06" />
	<edge id="336683280_3437413788_1107639228_2215533366" from="2215533366" to="3437422868" numLanes="2" speed="18.06" />
	<edge id="336683280_3437413788_1107639228_3437422868" from="3437422868" to="2215533368" numLanes="2" speed="18.06" />
	<edge id="336683280_3437413788_1107639228_2215533368" from="2215533368" to="3437413779" numLanes="2" speed="18.06" />
	<edge id="336683280_3437413788_1107639228_3437413779" from="3437413779" to="1107639207" numLanes="2" speed="18.06" />
	<edge id="336683280_3437413788_1107639228_1107639207" from="1107639207" to="3437422836" numLanes="2" speed="18.06" />
	<edge id="336683280_3437413788_1107639228_3437422836" from="3437422836" to="2215533371" numLanes="2" speed="18.06" />
	<edge id="336683280_3437413788_1107639228_2215533371" from="2215533371" to="3437423018" numLanes="2" speed="18.06" />
	<edge id="336683280_3437413788_1107639228_3437423018" from="3437423018" to="1107639173" numLanes="2" speed="18.06" />
	<edge id="336683280_3437413788_1107639228_1107639173" from="1107639173" to="1107639267" numLanes="2" speed="18.06" />
	<edge id="336683280_3437413788_1107639228_1107639267" from="1107639267" to="3437423038" numLanes="2" speed="18.06" />
	<edge id="336683280_3437413788_1107639228_3437423038" from="3437423038" to="3437422795" numLanes="2" speed="18.06" />
	<edge id="336683280_3437413788_1107639228_3437422795" from="3437422795" to="3437423009" numLanes="2" speed="18.06" />
	<edge id="336683280_3437413788_1107639228_3437423009" from="3437423009" to="3437422835" numLanes="2" speed="18.06" />
	<edge id="336683280_3437413788_1107639228_3437422835" from="3437422835" to="3437422831" numLanes="2" speed="18.06" />
	<edge id="336683280_3437413788_1107639228_3437422831" from="3437422831" to="3437422808" numLanes="2" speed="18.06" />
	<edge id="336683280_3437413788_1107639228_3437422808" from="3437422808" to="3437422999" numLanes="2" speed="18.06" />
	<edge id="336683280_3437413788_1107639228_3437422999" from="3437422999" to="1107639228" numLanes="2" speed="18.06" />
	<edge id="379745860_262732010_262731946_262732010" from="262732010" to="262732011" numLanes="1" speed="8.33" />
	<edge id="379745860_262732010_262731946_262732011" from="262732011" to="262732012" numLanes="1" speed="8.33" />
	<edge id="379745860_262732010_262731946_262732012" from="262732012" to="1487158523" numLanes="1" speed="8.33" />
	<edge id="379745860_262732010_262731946_1487158523" from="1487158523" to="262732013" numLanes="1" speed="8.33" />
	<edge id="379745860_262732010_262731946_262732013" from="262732013" to="1487158502" numLanes="1" speed="8.33" />
	<edge id="379745860_262732010_262731946_1487158502" from="1487158502" to="1487158497" numLanes="1" speed="8.33" />
	<edge id="379745860_262732010_262731946_1487158497" from="1487158497" to="262731946" numLanes="1" speed="8.33" />
	<edge id="24267168_262732117_1924339023_262732117" from="262732117" to="262732154" numLanes="2" speed="8.33" />
	<edge id="24267168_262732117_1924339023_262732154" from="262732154" to="1438512738" numLanes="2" speed="8.33" />
	<edge id="24267168_262732117_1924339023_1438512738" from="1438512738" to="262732155" numLanes="2" speed="8.33" />
	<edge id="24267168_262732117_1924339023_262732155" from="262732155" to="262732156" numLanes="2" speed="8.33" />
	<edge id="24267168_262732117_1924339023_262732156" from="262732156" to="262732157" numLanes="2" speed="8.33" />
	<edge id="24267168_262732117_1924339023_262732157" from="262732157" to="1924339023" numLanes="2" speed="8.33" />
	<edge id="95523261_1107639226_262731772_1107639226" from="1107639226" to="1107639195" numLanes="2" speed="18.06" />
	<edge id="95523261_1107639226_262731772_1107639195" from="1107639195" to="3437422998" numLanes="2" speed="18.06" />
	<edge id="95523261_1107639226_262731772_3437422998" from="3437422998" to="3437422860" numLanes="2" speed="18.06" />
	<edge id="95523261_1107639226_262731772_3437422860" from="3437422860" to="1107639275" numLanes="2" speed="18.06" />
	<edge id="95523261_1107639226_262731772_1107639275" from="1107639275" to="3077654056" numLanes="2" speed="18.06" />
	<edge id="95523261_1107639226_262731772_3077654056" from="3077654056" to="3437422824" numLanes="2" speed="18.06" />
	<edge id="95523261_1107639226_262731772_3437422824" from="3437422824" to="1107639262" numLanes="2" speed="18.06" />
	<edge id="95523261_1107639226_262731772_1107639262" from="1107639262" to="3437422800" numLanes="2" speed="18.06" />
	<edge id="95523261_1107639226_262731772_3437422800" from="3437422800" to="3437422855" numLanes="2" speed="18.06" />
	<edge id="95523261_1107639226_262731772_3437422855" from="3437422855" to="262731772" numLanes="2" speed="18.06" />
	<edge id="95523260_262731772_3434244115_262731772" from="262731772" to="3437422856" numLanes="2" speed="19.44" />
	<edge id="95523260_262731772_3434244115_3437422856" from="3437422856" to="262728274" numLanes="2" speed="19.44" />
	<edge id="95523260_262731772_3434244115_262728274" from="262728274" to="3437423003" numLanes="2" speed="19.44" />
	<edge id="95523260_262731772_3434244115_3437423003" from="3437423003" to="3437423043" numLanes="2" speed="19.44" />
	<edge id="95523260_262731772_3434244115_3437423043" from="3437423043" to="3074377441" numLanes="2" speed="19.44" />
	<edge id="95523260_262731772_3434244115_3074377441" from="3074377441" to="3437420810" numLanes="2" speed="19.44" />
	<edge id="95523260_262731772_3434244115_3437420810" from="3437420810" to="3437420808" numLanes="2" speed="19.44" />
	<edge id="95523260_262731772_3434244115_3437420808" from="3437420808" to="262728275" numLanes="2" speed="19.44" />
	<edge id="95523260_262731772_3434244115_262728275" from="262728275" to="262728276" numLanes="2" speed="19.44" />
	<edge id="95523260_262731772_3434244115_262728276" from="262728276" to="262728277" numLanes="2" speed="19.44" />
	<edge id="95523260_262731772_3434244115_262728277" from="262728277" to="913324625" numLanes="2" speed="19.44" />
	<edge id="95523260_262731772_3434244115_913324625" from="913324625" to="262728278" numLanes="2" speed="19.44" />
	<edge id="95523260_262731772_3434244115_262728278" from="262728278" to="262728279" numLanes="2" speed="19.44" />
	<edge id="95523260_262731772_3434244115_262728279" from="262728279" to="1107639253" numLanes="2" speed="19.44" />
	<edge id="95523260_262731772_3434244115_1107639253" from="1107639253" to="262728280" numLanes="2" speed="19.44" />
	<edge id="95523260_262731772_3434244115_262728280" from="262728280" to="262728281" numLanes="2" speed="19.44" />
	<edge id="95523260_262731772_3434244115_262728281" from="262728281" to="3074377240" numLanes="2" speed="19.44" />
	<edge id="95523260_262731772_3434244115_3074377240" from="3074377240" to="3434245026" numLanes="2" speed="19.44" />
	<edge id="95523260_262731772_3434244115_3434245026" from="3434245026" to="3434245016" numLanes="2" speed="19.44" />
	<edge id="95523260_262731772_3434244115_3434245016" from="3434245016" to="3434245044" numLanes="2" speed="19.44" />
	<edge id="95523260_262731772_3434244115_3434245044" from="3434245044" to="913324695" numLanes="2" speed="19.44" />