<?xml version="1.0" encoding="UTF-8"?>

<!-- generated on Thu Jun  4 00:39:39 2020 by Eclipse SUMO netconvert Version 1.2.0
<configuration xmlns:xsi="http://www.w3.org/2001/XMLSchema-instance" xsi:noNamespaceSchemaLocation="http://sumo.dlr.de/xsd/netconvertConfiguration.xsd">

    <input>
        <node-files value="/home/vsimrti/scenarios/ids/sumo/gualtar8/gualtar8.nod.xml"/>
        <edge-files value="/home/vsimrti/scenarios/ids/sumo/gualtar8/gualtar8.edg.xml"/>
        <connection-files value="/home/vsimrti/scenarios/ids/sumo/gualtar8/gualtar8.con.xml"/>
    </input>

    <output>
        <output-file value="/home/vsimrti/scenarios/ids/sumo/gualtar8/gualtar8.net.xml"/>
    </output>

</configuration>
-->

<net version="1.1" junctionCornerDetail="5" limitTurnSpeed="5.50" xmlns:xsi="http://www.w3.org/2001/XMLSchema-instance" xsi:noNamespaceSchemaLocation="http://sumo.dlr.de/xsd/net_file.xsd">

    <location netOffset="-557408.34,-4588403.53" convBoundary="0.00,0.00,1326.16,1038.36" origBoundary="557408.34,4588403.53,558734.50,4589441.89" projParameter="!"/>

    <edge id=":1107639173_0" function="internal">
        <lane id=":1107639173_0_0" index="0" speed="18.06" length="0.71" shape="436.95,589.60 436.94,589.70 436.94,589.77 436.94,589.84 436.95,589.95"/>
        <lane id=":1107639173_0_1" index="1" speed="18.06" length="0.71" shape="433.78,589.18 433.74,589.50 433.73,589.71 433.73,589.93 433.76,590.24"/>
    </edge>
    <edge id=":1107639177_0" function="internal">
        <lane id=":1107639177_0_0" index="0" speed="18.06" length="0.26" shape="612.62,584.37 612.32,584.63"/>
        <lane id=":1107639177_0_1" index="1" speed="18.06" length="0.26" shape="610.46,582.01 610.36,582.10"/>
    </edge>
    <edge id=":1107639179_0" function="internal">
        <lane id=":1107639179_0_0" index="0" speed="18.06" length="0.29" shape="456.69,499.08 456.70,499.04 456.70,499.01 456.71,498.98 456.71,498.94"/>
        <lane id=":1107639179_0_1" index="1" speed="18.06" length="0.29" shape="459.82,499.73 459.85,499.61 459.86,499.52 459.88,499.43 459.89,499.30"/>
    </edge>
    <edge id=":1107639185_0" function="internal">
        <lane id=":1107639185_0_0" index="0" speed="18.06" length="2.99" shape="419.94,589.65 420.48,586.57"/>
        <lane id=":1107639185_0_1" index="1" speed="18.06" length="2.99" shape="423.18,589.75 423.65,586.94"/>
    </edge>
    <edge id=":1107639185_2" function="internal">
        <lane id=":1107639185_2_0" index="0" speed="18.06" length="2.96" shape="420.27,589.66 420.29,588.74 420.32,588.11 420.37,587.48 420.48,586.57"/>
        <lane id=":1107639185_2_1" index="1" speed="18.06" length="2.96" shape="423.46,589.76 423.49,588.92 423.51,588.35 423.56,587.78 423.65,586.94"/>
    </edge>
    <edge id=":1107639186_0" function="internal">
        <lane id=":1107639186_0_0" index="0" speed="18.06" length="3.25" shape="295.65,632.47 298.78,631.19"/>
        <lane id=":1107639186_0_1" index="1" speed="18.06" length="3.25" shape="297.08,635.33 299.97,634.16"/>
    </edge>
    <edge id=":1107639187_0" function="internal">
        <lane id=":1107639187_0_0" index="0" speed="18.06" length="0.28" shape="545.36,525.37 545.65,525.49"/>
        <lane id=":1107639187_0_1" index="1" speed="18.06" length="0.28" shape="544.07,528.29 544.30,528.40"/>
    </edge>
    <edge id=":1107639188_0" function="internal">
        <lane id=":1107639188_0_0" index="0" speed="18.06" length="0.47" shape="558.04,553.37 557.98,553.32 557.94,553.29 557.90,553.27 557.84,553.23"/>
        <lane id=":1107639188_0_1" index="1" speed="18.06" length="0.47" shape="560.07,550.90 559.91,550.77 559.80,550.68 559.68,550.60 559.50,550.49"/>
    </edge>
    <edge id=":1107639190_0" function="internal">
        <lane id=":1107639190_0_0" index="0" speed="18.06" length="0.29" shape="480.47,632.63 480.16,632.67"/>
        <lane id=":1107639190_0_1" index="1" speed="18.06" length="0.29" shape="480.04,629.46 479.78,629.49"/>
    </edge>
    <edge id=":1107639195_0" function="internal">
        <lane id=":1107639195_0_0" index="0" speed="18.06" length="0.45" shape="610.13,612.19 610.07,612.23 610.04,612.26 610.01,612.29 609.96,612.34"/>
        <lane id=":1107639195_0_1" index="1" speed="18.06" length="0.45" shape="608.17,609.66 608.01,609.78 607.91,609.87 607.81,609.97 607.66,610.11"/>
    </edge>
    <edge id=":1107639197_0" function="internal">
        <lane id=":1107639197_0_0" index="0" speed="18.06" length="0.45" shape="320.12,638.81 320.05,638.82 320.01,638.83 319.96,638.84 319.90,638.86"/>
        <lane id=":1107639197_0_1" index="1" speed="18.06" length="0.45" shape="319.61,635.65 319.42,635.69 319.28,635.71 319.15,635.75 318.96,635.80"/>
    </edge>
    <edge id=":1107639207_0" function="internal">
        <lane id=":1107639207_0_0" index="0" speed="18.06" length="0.47" shape="445.18,572.87 445.13,572.92 445.09,572.95 445.06,572.98 445.01,573.04"/>
        <lane id=":1107639207_0_1" index="1" speed="18.06" length="0.47" shape="443.08,570.45 442.92,570.59 442.82,570.69 442.72,570.79 442.58,570.95"/>
    </edge>
    <edge id=":1107639208_0" function="internal">
        <lane id=":1107639208_0_0" index="0" speed="18.06" length="0.25" shape="603.37,591.56 603.07,591.78"/>
        <lane id=":1107639208_0_1" index="1" speed="18.06" length="0.25" shape="601.41,589.03 601.31,589.10"/>
    </edge>
    <edge id=":1107639209_0" function="internal">
        <lane id=":1107639209_0_0" index="0" speed="18.06" length="0.24" shape="453.18,513.16 453.22,513.05"/>
        <lane id=":1107639209_0_1" index="1" speed="18.06" length="0.24" shape="456.18,514.28 456.29,513.94"/>
    </edge>
    <edge id=":1107639211_0" function="internal">
        <lane id=":1107639211_0_0" index="0" speed="18.06" length="0.48" shape="507.44,503.89 507.49,503.94 507.53,503.97 507.57,504.00 507.63,504.03"/>
        <lane id=":1107639211_0_1" index="1" speed="18.06" length="0.48" shape="505.38,506.35 505.54,506.48 505.66,506.57 505.78,506.65 505.96,506.77"/>
    </edge>
    <edge id=":1107639212_0" function="internal">
        <lane id=":1107639212_0_0" index="0" speed="18.06" length="0.67" shape="525.13,578.16 525.15,578.26 525.16,578.33 525.18,578.40 525.21,578.49"/>
        <lane id=":1107639212_0_1" index="1" speed="18.06" length="0.67" shape="521.96,578.56 522.00,578.85 522.03,579.05 522.09,579.25 522.19,579.54"/>
    </edge>
    <edge id=":1107639213_0" function="internal">
        <lane id=":1107639213_0_0" index="0" speed="18.06" length="0.37" shape="565.13,560.65 565.11,560.60 565.08,560.57 565.06,560.54 565.03,560.50"/>
        <lane id=":1107639213_0_1" index="1" speed="18.06" length="0.37" shape="567.87,558.99 567.79,558.85 567.73,558.76 567.66,558.67 567.56,558.54"/>
    </edge>
    <edge id=":1107639216_0" function="internal">
        <lane id=":1107639216_0_0" index="0" speed="18.06" length="0.16" shape="585.95,580.76 585.83,580.86"/>
        <lane id=":1107639216_0_1" index="1" speed="18.06" length="0.16" shape="587.47,583.58 587.52,583.56 587.54,583.55 587.57,583.54 587.61,583.51"/>
    </edge>
    <edge id=":1107639218_0" function="internal">
        <lane id=":1107639218_0_0" index="0" speed="18.06" length="0.75" shape="475.00,564.59 474.91,564.52 474.84,564.48 474.77,564.45 474.67,564.41"/>
        <lane id=":1107639218_0_1" index="1" speed="18.06" length="0.75" shape="476.81,561.95 476.53,561.76 476.33,561.64 476.12,561.54 475.81,561.42"/>
    </edge>
    <edge id=":1107639219_0" function="internal">
        <lane id=":1107639219_0_0" index="0" speed="18.06" length="0.26" shape="569.10,610.62 568.74,610.78"/>
        <lane id=":1107639219_0_1" index="1" speed="18.06" length="0.26" shape="567.66,607.76 567.55,607.81"/>
    </edge>
    <edge id=":1107639220_0" function="internal">
        <lane id=":1107639220_0_0" index="0" speed="18.06" length="0.25" shape="443.57,534.64 443.67,534.47"/>
        <lane id=":1107639220_0_1" index="1" speed="18.06" length="0.25" shape="446.36,536.21 446.51,535.94"/>
    </edge>
    <edge id=":1107639221_0" function="internal">
        <lane id=":1107639221_0_0" index="0" speed="8.33" length="0.63" shape="633.01,575.65 633.00,575.84 633.00,575.97 632.99,576.09 632.96,576.28"/>
    </edge>
    <edge id=":1107639221_1" function="internal">
        <lane id=":1107639221_1_0" index="0" speed="8.33" length="0.21" shape="629.79,575.85 629.80,575.79 629.80,575.75 629.81,575.71 629.81,575.65"/>
    </edge>
    <edge id=":1107639222_0" function="internal">
        <lane id=":1107639222_0_0" index="0" speed="18.06" length="0.73" shape="488.35,485.73 488.39,485.83 488.42,485.90 488.46,485.96 488.52,486.05"/>
        <lane id=":1107639222_0_1" index="1" speed="18.06" length="0.73" shape="485.38,486.94 485.51,487.24 485.61,487.44 485.72,487.63 485.91,487.90"/>
    </edge>
    <edge id=":1107639223_0" function="internal">
        <lane id=":1107639223_0_0" index="0" speed="18.06" length="0.61" shape="525.10,566.16 525.07,566.24 525.06,566.30 525.05,566.36 525.03,566.45"/>
        <lane id=":1107639223_0_1" index="1" speed="18.06" length="0.61" shape="522.05,565.18 521.97,565.44 521.92,565.62 521.89,565.80 521.86,566.07"/>
    </edge>
    <edge id=":1107639226_0" function="internal">
        <lane id=":1107639226_0_0" index="0" speed="8.33" length="20.09" shape="631.03,590.74 630.11,595.17 628.62,600.47 626.99,605.73 625.68,610.09"/>
    </edge>
    <edge id=":1107639226_1" function="internal">
        <lane id=":1107639226_1_0" index="0" speed="13.20" length="4.82" shape="631.03,590.74 629.51,593.99 628.56,594.78"/>
    </edge>
    <edge id=":1107639226_2" function="internal">
        <lane id=":1107639226_2_0" index="0" speed="3.65" length="2.46" shape="631.03,590.74 630.08,591.82 629.23,592.11 629.13,592.04"/>
    </edge>
    <edge id=":1107639226_6" function="internal">
        <lane id=":1107639226_6_0" index="0" speed="13.20" length="15.31" shape="628.56,594.78 626.22,596.75 621.59,599.72 616.05,603.57"/>
    </edge>
    <edge id=":1107639226_7" function="internal">
        <lane id=":1107639226_7_0" index="0" speed="3.65" length="2.22" shape="629.13,592.04 628.49,591.61 627.86,590.31"/>
    </edge>
    <edge id=":1107639226_3" function="internal">
        <lane id=":1107639226_3_0" index="0" speed="5.46" length="10.37" shape="622.60,609.21 623.22,605.82 622.66,604.18 620.92,604.27 618.01,606.11"/>
    </edge>
    <edge id=":1107639226_4" function="internal">
        <lane id=":1107639226_4_0" index="0" speed="8.33" length="19.63" shape="622.60,609.21 623.90,604.93 625.49,599.82 626.95,594.68 627.86,590.31"/>
    </edge>
    <edge id=":1107639226_5" function="internal">
        <lane id=":1107639226_5_0" index="0" speed="3.65" length="2.34" shape="622.60,609.21 623.69,608.28 624.57,608.11"/>
    </edge>
    <edge id=":1107639226_8" function="internal">
        <lane id=":1107639226_8_0" index="0" speed="3.65" length="2.34" shape="624.57,608.11 625.23,608.71 625.68,610.09"/>
    </edge>
    <edge id=":1107639228_0" function="internal">
        <lane id=":1107639228_0_0" index="0" speed="18.06" length="2.72" shape="464.33,615.77 465.11,615.91 465.64,616.02 466.17,616.08 466.95,616.04"/>
        <lane id=":1107639228_0_1" index="1" speed="18.06" length="2.72" shape="464.52,619.02 465.34,619.15 465.91,619.24 466.47,619.28 467.29,619.22"/>
    </edge>
    <edge id=":1107639228_2" function="internal">
        <lane id=":1107639228_2_0" index="0" speed="18.06" length="2.68" shape="464.36,616.23 466.95,616.04"/>
        <lane id=":1107639228_2_1" index="1" speed="18.06" length="2.68" shape="464.54,619.43 467.29,619.22"/>
    </edge>
    <edge id=":1107639229_0" function="internal">
        <lane id=":1107639229_0_0" index="0" speed="14.58" length="3.53" shape="551.92,597.14 552.92,596.83 553.59,596.56 554.20,596.19 555.05,595.57"/>
    </edge>
    <edge id=":1107639229_1" function="internal">
        <lane id=":1107639229_1_0" index="0" speed="17.50" length="5.12" shape="551.92,597.14 556.94,598.15"/>
    </edge>
    <edge id=":1107639229_2" function="internal">
        <lane id=":1107639229_2_0" index="0" speed="18.06" length="4.18" shape="551.92,597.14 552.95,596.84 553.66,596.63 554.35,596.39 555.35,595.98"/>
        <lane id=":1107639229_2_1" index="1" speed="18.06" length="4.18" shape="552.83,600.21 554.18,599.81 555.09,599.51 555.99,599.17 557.29,598.63"/>
    </edge>
    <edge id=":1107639232_0" function="internal">
        <lane id=":1107639232_0_0" index="0" speed="18.06" length="0.38" shape="483.72,571.77 483.68,571.73 483.65,571.70 483.63,571.68 483.59,571.64"/>
        <lane id=":1107639232_0_1" index="1" speed="18.06" length="0.38" shape="486.14,569.68 486.03,569.56 485.95,569.47 485.87,569.39 485.74,569.28"/>
    </edge>
    <edge id=":1107639233_0" function="internal">
        <lane id=":1107639233_0_0" index="0" speed="18.06" length="3.30" shape="533.59,623.50 532.62,623.80 531.95,624.02 531.28,624.22 530.29,624.44"/>
        <lane id=":1107639233_0_1" index="1" speed="18.06" length="3.30" shape="532.70,620.42 531.81,620.70 531.20,620.91 530.59,621.10 529.68,621.30"/>
    </edge>
    <edge id=":1107639234_0" function="internal">
        <lane id=":1107639234_0_0" index="0" speed="18.06" length="0.64" shape="426.04,562.96 426.16,562.70 426.24,562.52 426.34,562.36 426.50,562.12"/>
        <lane id=":1107639234_0_1" index="1" speed="18.06" length="0.64" shape="428.99,564.21 429.03,564.12 429.06,564.06 429.09,564.01 429.14,563.93"/>
    </edge>
    <edge id=":1107639235_0" function="internal">
        <lane id=":1107639235_0_0" index="0" speed="18.06" length="1.23" shape="530.62,554.93 530.47,555.04 530.38,555.12 530.30,555.22 530.20,555.37"/>
        <lane id=":1107639235_0_1" index="1" speed="9.40" length="1.23" shape="528.79,552.31 528.34,552.63 528.06,552.87 527.82,553.16 527.52,553.62"/>
    </edge>
    <edge id=":1107639240_0" function="internal">
        <lane id=":1107639240_0_0" index="0" speed="18.06" length="0.30" shape="515.56,608.18 515.60,608.17 515.63,608.17 515.66,608.16 515.70,608.15"/>
        <lane id=":1107639240_0_1" index="1" speed="18.06" length="0.30" shape="516.23,611.31 516.37,611.28 516.46,611.26 516.54,611.23 516.67,611.19"/>
    </edge>
    <edge id=":1107639246_0" function="internal">
        <lane id=":1107639246_0_0" index="0" speed="18.06" length="0.12" shape="494.69,630.73 494.54,630.75"/>
        <lane id=":1107639246_0_1" index="1" speed="18.06" length="0.12" shape="494.17,627.57 494.12,627.58"/>
    </edge>
    <edge id=":1107639248_0" function="internal">
        <lane id=":1107639248_0_0" index="0" speed="18.06" length="3.24" shape="421.09,581.37 421.50,578.04"/>
        <lane id=":1107639248_0_1" index="1" speed="18.06" length="3.24" shape="424.27,581.75 424.64,578.65"/>
    </edge>
    <edge id=":1107639249_0" function="internal">
        <lane id=":1107639249_0_0" index="0" speed="19.44" length="2.68" shape="460.51,453.32 460.31,450.72"/>
        <lane id=":1107639249_0_1" index="1" speed="19.44" length="2.68" shape="463.70,453.13 463.49,450.38"/>
    </edge>
    <edge id=":1107639249_2" function="internal">
        <lane id=":1107639249_2_0" index="0" speed="18.75" length="2.80" shape="459.72,453.37 459.94,452.58 460.17,452.05 460.32,451.52 460.31,450.72"/>
        <lane id=":1107639249_2_1" index="1" speed="18.75" length="2.80" shape="463.02,453.17 463.23,452.35 463.41,451.78 463.52,451.22 463.49,450.38"/>
    </edge>
    <edge id=":1107639250_0" function="internal">
        <lane id=":1107639250_0_0" index="0" speed="18.06" length="1.17" shape="542.40,549.20 542.23,549.20 542.11,549.21 542.00,549.24 541.83,549.30"/>
        <lane id=":1107639250_0_1" index="1" speed="9.97" length="1.17" shape="542.43,546.00 541.91,546.00 541.55,546.04 541.21,546.13 540.72,546.30"/>
    </edge>
    <edge id=":1107639253_0" function="internal">
        <lane id=":1107639253_0_0" index="0" speed="19.44" length="0.57" shape="1055.22,741.25 1055.41,741.41 1055.54,741.53 1055.65,741.65 1055.82,741.85"/>
        <lane id=":1107639253_0_1" index="1" speed="19.44" length="0.57" shape="1053.15,743.69 1053.22,743.74 1053.26,743.78 1053.30,743.83 1053.35,743.89"/>
    </edge>
    <edge id=":1107639254_0" function="internal">
        <lane id=":1107639254_0_0" index="0" speed="18.06" length="4.27" shape="591.16,577.28 594.73,574.90"/>
        <lane id=":1107639254_0_1" index="1" speed="18.06" length="4.27" shape="592.94,579.94 596.48,577.57"/>
    </edge>
    <edge id=":1107639256_0" function="internal">
        <lane id=":1107639256_0_0" index="0" speed="18.06" length="0.25" shape="602.86,569.56 603.02,569.45"/>
        <lane id=":1107639256_0_1" index="1" speed="18.06" length="0.25" shape="604.61,572.23 604.86,572.07"/>
    </edge>
    <edge id=":1107639257_0" function="internal">
        <lane id=":1107639257_0_0" index="0" speed="18.06" length="0.24" shape="485.89,613.81 486.08,613.79"/>
        <lane id=":1107639257_0_1" index="1" speed="18.06" length="0.24" shape="486.29,616.99 486.59,616.95"/>
    </edge>
    <edge id=":1107639259_0" function="internal">
        <lane id=":1107639259_0_0" index="0" speed="18.06" length="0.18" shape="590.43,570.59 590.55,570.83"/>
        <lane id=":1107639259_0_1" index="1" speed="18.06" length="0.18" shape="587.63,572.14 587.67,572.22"/>
    </edge>
    <edge id=":1107639262_0" function="internal">
        <lane id=":1107639262_0_0" index="0" speed="18.06" length="1.09" shape="600.93,638.44 600.99,638.59 601.05,638.69 601.12,638.77 601.23,638.89"/>
        <lane id=":1107639262_0_1" index="1" speed="10.91" length="1.09" shape="598.00,639.73 598.20,640.18 598.36,640.47 598.57,640.73 598.90,641.09"/>
    </edge>
    <edge id=":1107639263_0" function="internal">
        <lane id=":1107639263_0_0" index="0" speed="18.06" length="0.30" shape="406.15,635.97 405.85,635.96"/>
        <lane id=":1107639263_0_1" index="1" speed="18.06" length="0.30" shape="406.19,632.77 405.88,632.76"/>
    </edge>
    <edge id=":1107639264_0" function="internal">
        <lane id=":1107639264_0_0" index="0" speed="19.44" length="0.14" shape="465.39,503.14 465.35,502.96"/>
        <lane id=":1107639264_0_1" index="1" speed="19.44" length="0.14" shape="468.52,502.48 468.51,502.42"/>
    </edge>
    <edge id=":1107639267_0" function="internal">
        <lane id=":1107639267_0_0" index="0" speed="18.06" length="0.54" shape="437.39,594.77 437.40,594.85 437.41,594.91 437.42,594.96 437.44,595.04"/>
        <lane id=":1107639267_0_1" index="1" speed="18.06" length="0.54" shape="434.21,595.07 434.23,595.30 434.25,595.47 434.29,595.63 434.35,595.86"/>
    </edge>
    <edge id=":1107639268_0" function="internal">
        <lane id=":1107639268_0_0" index="0" speed="18.06" length="0.85" shape="599.49,566.36 599.62,566.40 599.70,566.42 599.79,566.42 599.91,566.43"/>
        <lane id=":1107639268_0_1" index="1" speed="18.06" length="0.85" shape="598.61,569.44 598.98,569.54 599.23,569.59 599.49,569.62 599.87,569.63"/>
    </edge>
    <edge id=":1107639269_0" function="internal">
        <lane id=":1107639269_0_0" index="0" speed="18.06" length="0.11" shape="434.04,617.18 434.16,617.17"/>
        <lane id=":1107639269_0_1" index="1" speed="18.06" length="0.11" shape="434.13,620.38 434.17,620.37"/>
    </edge>
    <edge id=":1107639270_0" function="internal">
        <lane id=":1107639270_0_0" index="0" speed="18.06" length="0.50" shape="572.60,543.08 572.76,543.24 572.87,543.35 572.97,543.46 573.11,543.64"/>
        <lane id=":1107639270_0_1" index="1" speed="18.06" length="0.50" shape="570.41,545.42 570.47,545.47 570.50,545.50 570.53,545.54 570.58,545.60"/>
    </edge>
    <edge id=":1107639272_0" function="internal">
        <lane id=":1107639272_0_0" index="0" speed="18.06" length="0.70" shape="548.31,549.29 548.21,549.26 548.14,549.25 548.07,549.25 547.97,549.25"/>
        <lane id=":1107639272_0_1" index="1" speed="18.06" length="0.70" shape="549.03,546.17 548.73,546.10 548.52,546.06 548.30,546.05 547.99,546.05"/>
    </edge>
    <edge id=":1107639275_0" function="internal">
        <lane id=":1107639275_0_0" index="0" speed="18.06" length="0.86" shape="599.51,626.83 599.45,626.95 599.43,627.03 599.41,627.11 599.39,627.24"/>
        <lane id=":1107639275_0_1" index="1" speed="18.06" length="0.86" shape="596.58,625.53 596.43,625.88 596.34,626.13 596.28,626.38 596.22,626.76"/>
    </edge>
    <edge id=":1107639277_0" function="internal">
        <lane id=":1107639277_0_0" index="0" speed="18.06" length="0.22" shape="342.36,635.89 342.25,635.89"/>
        <lane id=":1107639277_0_1" index="1" speed="18.06" length="0.22" shape="342.25,632.69 341.92,632.71"/>
    </edge>
    <edge id=":1107639279_0" function="internal">
        <lane id=":1107639279_0_0" index="0" speed="19.44" length="3.20" shape="470.24,523.88 469.43,520.69"/>
        <lane id=":1107639279_0_1" index="1" speed="19.44" length="3.20" shape="473.29,522.91 472.53,519.90"/>
    </edge>
    <edge id=":1107639281_0" function="internal">
        <lane id=":1107639281_0_0" index="0" speed="18.06" length="0.14" shape="583.92,603.22 583.75,603.30"/>
        <lane id=":1107639281_0_1" index="1" speed="18.06" length="0.14" shape="582.38,600.41 582.32,600.44"/>
    </edge>
    <edge id=":1107639282_0" function="internal">
        <lane id=":1107639282_0_0" index="0" speed="8.33" length="0.86" shape="570.33,681.79 570.13,681.94 569.99,682.04 569.84,682.13 569.61,682.24"/>
    </edge>
    <edge id=":1107639282_1" function="internal">
        <lane id=":1107639282_1_0" index="0" speed="8.33" length="0.29" shape="568.15,679.40 568.22,679.36 568.27,679.33 568.32,679.30 568.39,679.24"/>
    </edge>
    <edge id=":1107639289_0" function="internal">
        <lane id=":1107639289_0_0" index="0" speed="18.06" length="0.11" shape="381.59,617.82 381.72,617.82"/>
        <lane id=":1107639289_0_1" index="1" speed="18.06" length="0.11" shape="381.68,621.02 381.73,621.02"/>
    </edge>
    <edge id=":1107639292_0" function="internal">
        <lane id=":1107639292_0_0" index="0" speed="19.44" length="0.30" shape="487.53,564.79 487.38,564.53"/>
        <lane id=":1107639292_0_1" index="1" speed="19.44" length="0.30" shape="490.33,563.25 490.19,562.98"/>
    </edge>
    <edge id=":1310741692_0" function="internal">
        <lane id=":1310741692_0_0" index="0" speed="8.33" length="0.66" shape="628.75,423.39 628.83,423.46 628.88,423.50 628.94,423.54 629.02,423.58"/>
        <lane id=":1310741692_0_1" index="1" speed="8.33" length="0.66" shape="626.62,425.78 626.85,425.98 627.00,426.10 627.17,426.21 627.43,426.36"/>
    </edge>
    <edge id=":1437593130_0" function="internal">
        <lane id=":1437593130_0_0" index="0" speed="13.89" length="0.96" shape="212.56,458.58 212.42,458.33 212.34,458.15 212.27,457.97 212.18,457.69"/>
    </edge>
    <edge id=":1437593130_1" function="internal">
        <lane id=":1437593130_1_0" index="0" speed="13.89" length="0.32" shape="215.24,456.75 215.27,456.84 215.29,456.90 215.32,456.96 215.37,457.04"/>
    </edge>
    <edge id=":1437593252_0" function="internal">
        <lane id=":1437593252_0_0" index="0" speed="13.89" length="0.72" shape="207.17,441.45 207.10,441.25 207.04,441.12 206.96,441.00 206.81,440.84"/>
    </edge>
    <edge id=":1437593252_1" function="internal">
        <lane id=":1437593252_1_0" index="0" speed="8.29" length="2.16" shape="209.16,438.67 209.59,439.14 209.85,439.50 210.03,439.90 210.23,440.51"/>
    </edge>
    <edge id=":1437593274_0" function="internal">
        <lane id=":1437593274_0_0" index="0" speed="13.89" length="0.68" shape="213.56,654.73 213.55,654.53 213.55,654.39 213.55,654.26 213.57,654.05"/>
    </edge>
    <edge id=":1437593274_1" function="internal">
        <lane id=":1437593274_1_0" index="0" speed="13.89" length="0.23" shape="216.76,654.31 216.75,654.38 216.75,654.43 216.75,654.47 216.76,654.54"/>
    </edge>
    <edge id=":1437593282_0" function="internal">
        <lane id=":1437593282_0_0" index="0" speed="6.73" length="3.74" shape="287.73,555.76 287.81,556.85 287.73,557.62 287.40,558.33 286.76,559.22"/>
    </edge>
    <edge id=":1437593282_1" function="internal">
        <lane id=":1437593282_1_0" index="0" speed="4.24" length="1.25" shape="284.23,557.26 284.44,556.97 284.55,556.73 284.58,556.48 284.55,556.11"/>
    </edge>
    <edge id=":1437593304_0" function="internal">
        <lane id=":1437593304_0_0" index="0" speed="13.89" length="0.79" shape="221.91,619.90 221.75,620.07 221.66,620.21 221.60,620.36 221.54,620.58"/>
    </edge>
    <edge id=":1437593304_1" function="internal">
        <lane id=":1437593304_1_0" index="0" speed="7.83" length="2.38" shape="218.44,619.79 218.62,619.12 218.80,618.66 219.08,618.26 219.55,617.74"/>
    </edge>
    <edge id=":1437593376_0" function="internal">
        <lane id=":1437593376_0_0" index="0" speed="8.08" length="13.31" shape="264.17,685.88 259.80,684.49 256.33,684.18 253.73,684.96 252.01,686.82"/>
    </edge>
    <edge id=":1437593376_1" function="internal">
        <lane id=":1437593376_1_0" index="0" speed="8.72" length="18.46" shape="264.17,685.88 258.95,683.12 255.89,679.90 254.98,676.22 256.23,672.08"/>
    </edge>
    <edge id=":1437593376_2" function="internal">
        <lane id=":1437593376_2_0" index="0" speed="4.82" length="9.84" shape="264.17,685.88 261.15,686.20 259.42,685.44 258.99,683.61 259.86,680.70"/>
    </edge>
    <edge id=":1437593376_3" function="internal">
        <lane id=":1437593376_3_0" index="0" speed="4.91" length="6.07" shape="263.95,676.39 262.89,677.32 261.30,678.68 260.01,679.97 259.86,680.70"/>
    </edge>
    <edge id=":1437593376_4" function="internal">
        <lane id=":1437593376_4_0" index="0" speed="15.97" length="15.13" shape="261.06,674.78 257.78,678.33 255.46,681.18 253.68,683.84 252.01,686.82"/>
    </edge>
    <edge id=":1437593376_5" function="internal">
        <lane id=":1437593376_5_0" index="0" speed="15.97" length="15.47" shape="249.18,685.32 250.33,682.10 250.83,678.81 251.57,675.08 253.43,670.52"/>
    </edge>
    <edge id=":1437593376_6" function="internal">
        <lane id=":1437593376_6_0" index="0" speed="7.98" length="7.00" shape="249.18,685.32 251.32,682.28 253.80,680.49 254.02,680.45"/>
    </edge>
    <edge id=":1437593376_7" function="internal">
        <lane id=":1437593376_7_0" index="0" speed="3.65" length="2.34" shape="249.18,685.32 250.45,684.63 251.35,684.66"/>
    </edge>
    <edge id=":1437593376_8" function="internal">
        <lane id=":1437593376_8_0" index="0" speed="7.98" length="5.96" shape="254.02,680.45 256.65,679.97 259.86,680.70"/>
    </edge>
    <edge id=":1437593376_9" function="internal">
        <lane id=":1437593376_9_0" index="0" speed="3.65" length="2.34" shape="251.35,684.66 251.87,685.38 252.01,686.82"/>
    </edge>
    <edge id=":1437593415_0" function="internal">
        <lane id=":1437593415_0_0" index="0" speed="13.89" length="0.51" shape="225.03,471.47 224.90,471.41 224.80,471.36 224.71,471.31 224.58,471.23"/>
    </edge>
    <edge id=":1437593415_1" function="internal">
        <lane id=":1437593415_1_0" index="0" speed="13.89" length="0.17" shape="226.22,468.48 226.26,468.51 226.29,468.52 226.32,468.54 226.37,468.56"/>
    </edge>
    <edge id=":1437593425_0" function="internal">
        <lane id=":1437593425_0_0" index="0" speed="13.89" length="0.26" shape="116.97,412.65 116.72,412.74"/>
    </edge>
    <edge id=":1437593425_1" function="internal">
        <lane id=":1437593425_1_0" index="0" speed="13.89" length="0.31" shape="115.51,409.78 115.80,409.67"/>
    </edge>
    <edge id=":1437593444_0" function="internal">
        <lane id=":1437593444_0_0" index="0" speed="7.52" length="2.59" shape="218.16,467.43 217.51,467.02 217.10,466.69 216.77,466.26 216.40,465.60"/>
    </edge>
    <edge id=":1437593444_1" function="internal">
        <lane id=":1437593444_1_0" index="0" speed="13.89" length="0.86" shape="219.20,464.06 219.33,464.29 219.44,464.43 219.57,464.54 219.79,464.67"/>
    </edge>
    <edge id=":1437593451_0" function="internal">
        <lane id=":1437593451_0_0" index="0" speed="13.89" length="0.40" shape="226.06,706.73 226.24,706.73 226.36,706.74 226.48,706.75 226.66,706.78"/>
        <lane id=":1437593451_0_1" index="1" speed="13.89" length="0.40" shape="226.02,709.93 226.08,709.93 226.12,709.93 226.16,709.94 226.22,709.95"/>
    </edge>
    <edge id=":1437593462_0" function="internal">
        <lane id=":1437593462_0_0" index="0" speed="7.26" length="2.84" shape="263.19,1015.65 262.61,1016.24 262.14,1016.59 261.60,1016.82 260.79,1017.03"/>
    </edge>
    <edge id=":1437593462_1" function="internal">
        <lane id=":1437593462_1_0" index="0" speed="8.33" length="0.95" shape="260.06,1013.91 260.33,1013.84 260.51,1013.77 260.67,1013.65 260.86,1013.45"/>
    </edge>
    <edge id=":1437593516_0" function="internal">
        <lane id=":1437593516_0_0" index="0" speed="13.89" length="0.27" shape="264.74,501.22 264.71,501.14 264.69,501.09 264.66,501.05 264.62,500.98"/>
    </edge>
    <edge id=":1437593516_1" function="internal">
        <lane id=":1437593516_1_0" index="0" speed="13.89" length="0.81" shape="267.33,499.28 267.46,499.48 267.54,499.63 267.61,499.77 267.70,500.00"/>
    </edge>
    <edge id=":1437593522_0" function="internal">
        <lane id=":1437593522_0_0" index="0" speed="13.89" length="20.42" shape="214.19,721.30 212.36,715.03 212.40,709.74 213.22,705.21 213.73,701.25"/>
    </edge>
    <edge id=":1437593522_1" function="internal">
        <lane id=":1437593522_1_0" index="0" speed="6.13" length="9.46" shape="215.47,716.41 214.81,713.99 215.30,712.11 216.92,710.75 219.69,709.92"/>
    </edge>
    <edge id=":1437593522_2" function="internal">
        <lane id=":1437593522_2_0" index="0" speed="5.40" length="6.63" shape="216.93,701.25 217.08,703.80 217.51,705.57 218.24,706.55 219.25,706.75"/>
    </edge>
    <edge id=":1437593522_3" function="internal">