<edges>
	<edge id="123082849_1373732052_1373732049_1373732052" from="1373732052" to="1373732049" numLanes="2" speed="25.00" />
	<edge id="32118961_360476823_251118318_360476823" from="360476823" to="6435610509" numLanes="2" speed="25.00" />
	<edge id="32118961_360476823_251118318_6435610509" from="6435610509" to="1791505463" numLanes="2" speed="25.00" />
	<edge id="32118961_360476823_251118318_1791505463" from="1791505463" to="6435610507" numLanes="2" speed="25.00" />
	<edge id="32118961_360476823_251118318_6435610507" from="6435610507" to="251118318" numLanes="2" speed="25.00" />
	<edge id="87557106_1018661929_255509742_1018661929" from="1018661929" to="1791505402" numLanes="2" speed="11.11" />
	<edge id="87557106_1018661929_255509742_1791505402" from="1791505402" to="1791505409" numLanes="2" speed="11.11" />
	<edge id="87557106_1018661929_255509742_1791505409" from="1791505409" to="961246132" numLanes="2" speed="11.11" />
	<edge id="87557106_1018661929_255509742_961246132" from="961246132" to="255509742" numLanes="2" speed="11.11" />
	<edge id="23594446_251118682_924406553_251118682" from="251118682" to="251118680" numLanes="1" speed="19.44" />
	<edge id="23594446_251118682_924406553_251118680" from="251118680" to="924406553" numLanes="1" speed="19.44" />
	<edge id="87574290_253350615_251118736_253350615" from="253350615" to="6435610489" numLanes="1" speed="16.67" />
	<edge id="87574290_253350615_251118736_6435610489" from="6435610489" to="251118736" numLanes="1" speed="16.67" />
	<edge id="23594446_255509742_255509283_255509742" from="255509742" to="255509064" numLanes="1" speed="19.44" />
	<edge id="23594446_255509742_255509283_255509064" from="255509064" to="924406561" numLanes="1" speed="19.44" />
	<edge id="23594446_255509742_255509283_924406561" from="924406561" to="2450409966" numLanes="1" speed="19.44" />
	<edge id="23594446_255509742_255509283_2450409966" from="2450409966" to="255509063" numLanes="1" speed="19.44" />
	<edge id="23594446_255509742_255509283_255509063" from="255509063" to="255509283" numLanes="1" speed="19.44" />
	<edge id="35273344_253349423_251118753_253349423" from="253349423" to="251147530" numLanes="2" speed="33.33" />
	<edge id="35273344_253349423_251118753_251147530" from="251147530" to="251118753" numLanes="2" speed="33.33" />
	<edge id="23267288_1018808035_1018808047_1018808035" from="1018808035" to="1018808047" numLanes="1" speed="16.67" />
	<edge id="35273345_413477864_413477863_413477864" from="413477864" to="413477863" numLanes="2" speed="19.44" />
	<edge id="87574288_1018808049_1018808053_1018808049" from="1018808049" to="1018808053" numLanes="1" speed="19.44" />
	<edge id="35273346_413477863_924406572_413477863" from="413477863" to="360477000" numLanes="2" speed="19.44" />
	<edge id="35273346_413477863_924406572_360477000" from="360477000" to="6435609367" numLanes="2" speed="19.44" />
	<edge id="35273346_413477863_924406572_6435609367" from="6435609367" to="1791505464" numLanes="2" speed="19.44" />
	<edge id="35273346_413477863_924406572_1791505464" from="1791505464" to="924406572" numLanes="2" speed="19.44" />
	<edge id="84417602_251118330_251118332_251118330" from="251118330" to="251118331" numLanes="2" speed="33.33" />
	<edge id="84417602_251118330_251118332_251118331" from="251118331" to="251832187" numLanes="2" speed="33.33" />
	<edge id="84417602_251118330_251118332_251832187" from="251832187" to="251118332" numLanes="2" speed="33.33" />
	<edge id="82587878_961246123_924406553_961246123" from="961246123" to="1791505438" numLanes="2" speed="13.89" />
	<edge id="82587878_961246123_924406553_1791505438" from="1791505438" to="924406553" numLanes="2" speed="13.89" />
	<edge id="123082845_1373732053_251147306_1373732053" from="1373732053" to="251147303" numLanes="2" speed="19.44" />
	<edge id="123082845_1373732053_251147306_251147303" from="251147303" to="1373732058" numLanes="2" speed="19.44" />
	<edge id="123082845_1373732053_251147306_1373732058" from="1373732058" to="1373732061" numLanes="2" speed="19.44" />
	<edge id="123082845_1373732053_251147306_1373732061" from="1373732061" to="1373732063" numLanes="2" speed="19.44" />
	<edge id="123082845_1373732053_251147306_1373732063" from="1373732063" to="251147304" numLanes="2" speed="19.44" />
	<edge id="123082845_1373732053_251147306_251147304" from="251147304" to="1373732065" numLanes="2" speed="19.44" />
	<edge id="123082845_1373732053_251147306_1373732065" from="1373732065" to="6435610485" numLanes="2" speed="19.44" />
	<edge id="123082845_1373732053_251147306_6435610485" from="6435610485" to="251147306" numLanes="2" speed="19.44" />
	<edge id="23267295_251118336_981230149_251118336" from="251118336" to="251118337" numLanes="2" speed="33.33" />
	<edge id="23267295_251118336_981230149_251118337" from="251118337" to="251118338" numLanes="2" speed="33.33" />
	<edge id="23267295_251118336_981230149_251118338" from="251118338" to="981230149" numLanes="2" speed="33.33" />
	<edge id="23267289_251799067_251799068_251799067" from="251799067" to="251799068" numLanes="1" speed="19.44" />
	<edge id="23267294_251118335_251118336_251118335" from="251118335" to="251118336" numLanes="2" speed="33.33" />
	<edge id="23267285_251147488_1018808053_251147488" from="251147488" to="7435945401" numLanes="1" speed="19.44" />
	<edge id="23267285_251147488_1018808053_7435945401" from="7435945401" to="251799058" numLanes="1" speed="19.44" />
	<edge id="23267285_251147488_1018808053_251799058" from="251799058" to="251799059" numLanes="1" speed="19.44" />
	<edge id="23267285_251147488_1018808053_251799059" from="251799059" to="251799060" numLanes="1" speed="19.44" />
	<edge id="23267285_251147488_1018808053_251799060" from="251799060" to="251799061" numLanes="1" speed="19.44" />
	<edge id="23267285_251147488_1018808053_251799061" from="251799061" to="251799062" numLanes="1" speed="19.44" />
	<edge id="23267285_251147488_1018808053_251799062" from="251799062" to="251799063" numLanes="1" speed="19.44" />
	<edge id="23267285_251147488_1018808053_251799063" from="251799063" to="1018808053" numLanes="1" speed="19.44" />
	<edge id="23267287_251118736_251799067_251118736" from="251118736" to="253350218" numLanes="1" speed="16.67" />
	<edge id="23267287_251118736_251799067_253350218" from="253350218" to="253350219" numLanes="1" speed="16.67" />
	<edge id="23267287_251118736_251799067_253350219" from="253350219" to="251118738" numLanes="1" speed="16.67" />
	<edge id="23267287_251118736_251799067_251118738" from="251118738" to="253350220" numLanes="1" speed="16.67" />
	<edge id="23267287_251118736_251799067_253350220" from="253350220" to="6435610496" numLanes="1" speed="16.67" />
	<edge id="23267287_251118736_251799067_6435610496" from="6435610496" to="251118739" numLanes="1" speed="16.67" />
	<edge id="23267287_251118736_251799067_251118739" from="251118739" to="6435610497" numLanes="1" speed="16.67" />
	<edge id="23267287_251118736_251799067_6435610497" from="6435610497" to="253350221" numLanes="1" speed="16.67" />
	<edge id="23267287_251118736_251799067_253350221" from="253350221" to="6435610504" numLanes="1" speed="16.67" />
	<edge id="23267287_251118736_251799067_6435610504" from="6435610504" to="6435610501" numLanes="1" speed="16.67" />
	<edge id="23267287_251118736_251799067_6435610501" from="6435610501" to="251799067" numLanes="1" speed="16.67" />
	<edge id="84417541_981230104_251118367_981230104" from="981230104" to="251118339" numLanes="2" speed="33.33" />
	<edge id="84417541_981230104_251118367_251118339" from="251118339" to="251118340" numLanes="2" speed="33.33" />
	<edge id="84417541_981230104_251118367_251118340" from="251118340" to="251118341" numLanes="2" speed="33.33" />
	<edge id="84417541_981230104_251118367_251118341" from="251118341" to="251118342" numLanes="2" speed="33.33" />
	<edge id="84417541_981230104_251118367_251118342" from="251118342" to="251118347" numLanes="2" speed="33.33" />
	<edge id="84417541_981230104_251118367_251118347" from="251118347" to="251118348" numLanes="2" speed="33.33" />
	<edge id="84417541_981230104_251118367_251118348" from="251118348" to="251118349" numLanes="2" speed="33.33" />
	<edge id="84417541_981230104_251118367_251118349" from="251118349" to="251118350" numLanes="2" speed="33.33" />
	<edge id="84417541_981230104_251118367_251118350" from="251118350" to="251118351" numLanes="2" speed="33.33" />
	<edge id="84417541_981230104_251118367_251118351" from="251118351" to="251118352" numLanes="2" speed="33.33" />
	<edge id="84417541_981230104_251118367_251118352" from="251118352" to="251118353" numLanes="2" speed="33.33" />
	<edge id="84417541_981230104_251118367_251118353" from="251118353" to="251118354" numLanes="2" speed="33.33" />
	<edge id="84417541_981230104_251118367_251118354" from="251118354" to="251118355" numLanes="2" speed="33.33" />
	<edge id="84417541_981230104_251118367_251118355" from="251118355" to="251118356" numLanes="2" speed="33.33" />
	<edge id="84417541_981230104_251118367_251118356" from="251118356" to="251118357" numLanes="2" speed="33.33" />
	<edge id="84417541_981230104_251118367_251118357" from="251118357" to="251118358" numLanes="2" speed="33.33" />
	<edge id="84417541_981230104_251118367_251118358" from="251118358" to="251118359" numLanes="2" speed="33.33" />
	<edge id="84417541_981230104_251118367_251118359" from="251118359" to="251118360" numLanes="2" speed="33.33" />
	<edge id="84417541_981230104_251118367_251118360" from="251118360" to="251118361" numLanes="2" speed="33.33" />
	<edge id="84417541_981230104_251118367_251118361" from="251118361" to="1018808023" numLanes="2" speed="33.33" />
	<edge id="84417541_981230104_251118367_1018808023" from="1018808023" to="251118367" numLanes="2" speed="33.33" />
	<edge id="87574287_1018808047_1018808038_1018808047" from="1018808047" to="1018808038" numLanes="1" speed="19.44" />
	<edge id="32118955_924406572_360476823_924406572" from="924406572" to="6435609369" numLanes="3" speed="19.44" />
	<edge id="32118955_924406572_360476823_6435609369" from="6435609369" to="924406573" numLanes="3" speed="19.44" />
	<edge id="32118955_924406572_360476823_924406573" from="924406573" to="360476993" numLanes="3" speed="19.44" />
	<edge id="32118955_924406572_360476823_360476993" from="360476993" to="924406575" numLanes="3" speed="19.44" />
	<edge id="32118955_924406572_360476823_924406575" from="924406575" to="924406576" numLanes="3" speed="19.44" />
	<edge id="32118955_924406572_360476823_924406576" from="924406576" to="360476823" numLanes="3" speed="19.44" />
	<edge id="23217980_251118732_1373732051_251118732" from="251118732" to="1373732048" numLanes="2" speed="19.44" />
	<edge id="23217980_251118732_1373732051_1373732048" from="1373732048" to="1373732051" numLanes="2" speed="19.44" />
	<edge id="87574289_1018808038_251147306_1018808038" from="1018808038" to="6435610502" numLanes="1" speed="16.67" />
	<edge id="87574289_1018808038_251147306_6435610502" from="6435610502" to="6435610503" numLanes="1" speed="16.67" />
	<edge id="87574289_1018808038_251147306_6435610503" from="6435610503" to="6435610505" numLanes="1" speed="16.67" />
	<edge id="87574289_1018808038_251147306_6435610505" from="6435610505" to="1018808051" numLanes="1" speed="16.67" />
	<edge id="87574289_1018808038_251147306_1018808051" from="1018808051" to="6435610498" numLanes="1" speed="16.67" />
	<edge id="87574289_1018808038_251147306_6435610498" from="6435610498" to="1018808022" numLanes="1" speed="16.67" />
	<edge id="87574289_1018808038_251147306_1018808022" from="1018808022" to="6435610495" numLanes="1" speed="16.67" />
	<edge id="87574289_1018808038_251147306_6435610495" from="6435610495" to="1018808032" numLanes="1" speed="16.67" />
	<edge id="87574289_1018808038_251147306_1018808032" from="1018808032" to="1018808048" numLanes="1" speed="16.67" />
	<edge id="87574289_1018808038_251147306_1018808048" from="1018808048" to="6435610494" numLanes="1" speed="16.67" />
	<edge id="87574289_1018808038_251147306_6435610494" from="6435610494" to="6435610493" numLanes="1" speed="16.67" />
	<edge id="87574289_1018808038_251147306_6435610493" from="6435610493" to="1018808021" numLanes="1" speed="16.67" />
	<edge id="87574289_1018808038_251147306_1018808021" from="1018808021" to="6435610488" numLanes="1" speed="16.67" />
	<edge id="87574289_1018808038_251147306_6435610488" from="6435610488" to="253350598" numLanes="1" speed="16.67" />
	<edge id="87574289_1018808038_251147306_253350598" from="253350598" to="6435610487" numLanes="1" speed="16.67" />
	<edge id="87574289_1018808038_251147306_6435610487" from="6435610487" to="251799064" numLanes="1" speed="16.67" />
	<edge id="87574289_1018808038_251147306_251799064" from="251799064" to="6435610486" numLanes="1" speed="16.67" />
	<edge id="87574289_1018808038_251147306_6435610486" from="6435610486" to="251799065" numLanes="1" speed="16.67" />
	<edge id="87574289_1018808038_251147306_251799065" from="251799065" to="253350600" numLanes="1" speed="16.67" />
	<edge id="87574289_1018808038_251147306_253350600" from="253350600" to="6435609382" numLanes="1" speed="16.67" />
	<edge id="87574289_1018808038_251147306_6435609382" from="6435609382" to="251799066" numLanes="1" speed="16.67" />
	<edge id="87574289_1018808038_251147306_251799066" from="251799066" to="6435609383" numLanes="1" speed="16.67" />
	<edge id="87574289_1018808038_251147306_6435609383" from="6435609383" to="253350601" numLanes="1" speed="16.67" />
	<edge id="87574289_1018808038_251147306_253350601" from="253350601" to="6435609384" numLanes="1" speed="16.67" />
	<edge id="87574289_1018808038_251147306_6435609384" from="6435609384" to="6435610499" numLanes="1" speed="16.67" />
	<edge id="87574289_1018808038_251147306_6435610499" from="6435610499" to="251147306" numLanes="1" speed="16.67" />
	<edge id="23267284_251118745_251118753_251118745" from="251118745" to="253348874" numLanes="1" speed="19.44" />
	<edge id="23267284_251118745_251118753_253348874" from="253348874" to="251118746" numLanes="1" speed="19.44" />
	<edge id="23267284_251118745_251118753_251118746" from="251118746" to="253348875" numLanes="1" speed="19.44" />
	<edge id="23267284_251118745_251118753_253348875" from="253348875" to="251118747" numLanes="1" speed="19.44" />
	<edge id="23267284_251118745_251118753_251118747" from="251118747" to="1737161792" numLanes="1" speed="19.44" />
	<edge id="23267284_251118745_251118753_1737161792" from="1737161792" to="253348876" numLanes="1" speed="19.44" />
	<edge id="23267284_251118745_251118753_253348876" from="253348876" to="1737161794" numLanes="1" speed="19.44" />
	<edge id="23267284_251118745_251118753_1737161794" from="1737161794" to="251118748" numLanes="1" speed="19.44" />
	<edge id="23267284_251118745_251118753_251118748" from="251118748" to="253348877" numLanes="1" speed="19.44" />
	<edge id="23267284_251118745_251118753_253348877" from="253348877" to="251118749" numLanes="1" speed="19.44" />
	<edge id="23267284_251118745_251118753_251118749" from="251118749" to="253348667" numLanes="1" speed="19.44" />
	<edge id="23267284_251118745_251118753_253348667" from="253348667" to="251118750" numLanes="1" speed="19.44" />
	<edge id="23267284_251118745_251118753_251118750" from="251118750" to="253348668" numLanes="1" speed="19.44" />
	<edge id="23267284_251118745_251118753_253348668" from="253348668" to="251118751" numLanes="1" speed="19.44" />
	<edge id="23267284_251118745_251118753_251118751" from="251118751" to="253348669" numLanes="1" speed="19.44" />
	<edge id="23267284_251118745_251118753_253348669" from="253348669" to="251118753" numLanes="1" speed="19.44" />
	<edge id="23267290_251799068_251118322_251799068" from="251799068" to="251118322" numLanes="1" speed="16.67" />
	<edge id="87574285_1018808035_1018808053_1018808035" from="1018808035" to="1018808053" numLanes="1" speed="16.67" />
	<edge id="23267297_251799072_251799071_251799072" from="251799072" to="251799071" numLanes="2" speed="33.33" />
	<edge id="23267280_253349423_1737161784_253349423" from="253349423" to="1737161783" numLanes="1" speed="19.44" />
	<edge id="23267280_253349423_1737161784_1737161783" from="1737161783" to="251799054" numLanes="1" speed="19.44" />
	<edge id="23267280_253349423_1737161784_251799054" from="251799054" to="253349606" numLanes="1" speed="19.44" />
	<edge id="23267280_253349423_1737161784_253349606" from="253349606" to="251799053" numLanes="1" speed="19.44" />
	<edge id="23267280_253349423_1737161784_251799053" from="251799053" to="1737160683" numLanes="1" speed="19.44" />
	<edge id="23267280_253349423_1737161784_1737160683" from="1737160683" to="1737161788" numLanes="1" speed="19.44" />
	<edge id="23267280_253349423_1737161784_1737161788" from="1737161788" to="1737161791" numLanes="1" speed="19.44" />
	<edge id="23267280_253349423_1737161784_1737161791" from="1737161791" to="1737161797" numLanes="1" speed="19.44" />
	<edge id="23267280_253349423_1737161784_1737161797" from="1737161797" to="1737161798" numLanes="1" speed="19.44" />
	<edge id="23267280_253349423_1737161784_1737161798" from="1737161798" to="1737161796" numLanes="1" speed="19.44" />
	<edge id="23267280_253349423_1737161784_1737161796" from="1737161796" to="1737161790" numLanes="1" speed="19.44" />
	<edge id="23267280_253349423_1737161784_1737161790" from="1737161790" to="1737161787" numLanes="1" speed="19.44" />
	<edge id="23267280_253349423_1737161784_1737161787" from="1737161787" to="1737161786" numLanes="1" speed="19.44" />
	<edge id="23267280_253349423_1737161784_1737161786" from="1737161786" to="1737161785" numLanes="1" speed="19.44" />
	<edge id="23267280_253349423_1737161784_1737161785" from="1737161785" to="1737161784" numLanes="1" speed="19.44" />
	<edge id="23267288_1018808047_1018808035_1018808047" from="1018808047" to="1018808035" numLanes="1" speed="16.67" />
	<edge id="123082845_251147306_360476996_251147306" from="251147306" to="1373732069" numLanes="2" speed="19.44" />
	<edge id="123082845_251147306_360476996_1373732069" from="1373732069" to="1373732071" numLanes="2" speed="19.44" />
	<edge id="123082845_251147306_360476996_1373732071" from="1373732071" to="251147308" numLanes="2" speed="19.44" />
	<edge id="123082845_251147306_360476996_251147308" from="251147308" to="1791505459" numLanes="2" speed="19.44" />
	<edge id="123082845_251147306_360476996_1791505459" from="1791505459" to="6435610510" numLanes="2" speed="19.44" />
	<edge id="123082845_251147306_360476996_6435610510" from="6435610510" to="360476990" numLanes="2" speed="19.44" />
	<edge id="123082845_251147306_360476996_360476990" from="360476990" to="6435609371" numLanes="2" speed="19.44" />
	<edge id="123082845_251147306_360476996_6435609371" from="6435609371" to="1791505461" numLanes="2" speed="19.44" />
	<edge id="123082845_251147306_360476996_1791505461" from="1791505461" to="360476996" numLanes="2" speed="19.44" />
	<edge id="32118955_360476823_360476996_360476823" from="360476823" to="924406578" numLanes="3" speed="19.44" />
	<edge id="32118955_360476823_360476996_924406578" from="924406578" to="251147441" numLanes="3" speed="19.44" />
	<edge id="32118955_360476823_360476996_251147441" from="251147441" to="360476995" numLanes="3" speed="19.44" />
	<edge id="32118955_360476823_360476996_360476995" from="360476995" to="6435609370" numLanes="3" speed="19.44" />
	<edge id="32118955_360476823_360476996_6435609370" from="6435609370" to="360476996" numLanes="3" speed="19.44" />
	<edge id="32118961_961246166_1373732052_961246166" from="961246166" to="1373732052" numLanes="2" speed="25.00" />
	<edge id="35273348_251118311_360476839_251118311" from="251118311" to="251118309" numLanes="2" speed="19.44" />
	<edge id="35273348_251118311_360476839_251118309" from="251118309" to="251118308" numLanes="2" speed="19.44" />
	<edge id="35273348_251118311_360476839_251118308" from="251118308" to="1791505465" numLanes="2" speed="19.44" />
	<edge id="35273348_251118311_360476839_1791505465" from="1791505465" to="1791505467" numLanes="2" speed="19.44" />
	<edge id="35273348_251118311_360476839_1791505467" from="1791505467" to="360476824" numLanes="2" speed="19.44" />
	<edge id="35273348_251118311_360476839_360476824" from="360476824" to="1791505469" numLanes="2" speed="19.44" />
	<edge id="35273348_251118311_360476839_1791505469" from="1791505469" to="1791505471" numLanes="2" speed="19.44" />
	<edge id="35273348_251118311_360476839_1791505471" from="1791505471" to="360476836" numLanes="2" speed="19.44" />
	<edge id="35273348_251118311_360476839_360476836" from="360476836" to="1048813215" numLanes="2" speed="19.44" />
	<edge id="35273348_251118311_360476839_1048813215" from="1048813215" to="360476837" numLanes="2" speed="19.44" />
	<edge id="35273348_251118311_360476839_360476837" from="360476837" to="1048811715" numLanes="2" speed="19.44" />
	<edge id="35273348_251118311_360476839_1048811715" from="1048811715" to="1048813377" numLanes="2" speed="19.44" />
	<edge id="35273348_251118311_360476839_1048813377" from="1048813377" to="360476838" numLanes="2" speed="19.44" />
	<edge id="35273348_251118311_360476839_360476838" from="360476838" to="360476839" numLanes="2" speed="19.44" />
	<edge id="23267296_251799073_251799072_251799073" from="251799073" to="251799072" numLanes="2" speed="33.33" />
	<edge id="23267290_251118322_251147556_251118322" from="251118322" to="251147556" numLanes="1" speed="16.67" />
	<edge id="84417579_981230139_251799073_981230139" from="981230139" to="251799075" numLanes="2" speed="33.33" />
	<edge id="84417579_981230139_251799073_251799075" from="251799075" to="251799074" numLanes="2" speed="33.33" />
	<edge id="84417579_981230139_251799073_251799074" from="251799074" to="251799073" numLanes="2" speed="33.33" />
	<edge id="23267282_251147556_251118330_251147556" from="251147556" to="253349324" numLanes="1" speed="19.44" />
	<edge id="23267282_251147556_251118330_253349324" from="253349324" to="251118325" numLanes="1" speed="19.44" />
	<edge id="23267282_251147556_251118330_251118325" from="251118325" to="253349325" numLanes="1" speed="19.44" />
	<edge id="23267282_251147556_251118330_253349325" from="253349325" to="251118326" numLanes="1" speed="19.44" />
	<edge id="23267282_251147556_251118330_251118326" from="251118326" to="253349326" numLanes="1" speed="19.44" />
	<edge id="23267282_251147556_251118330_253349326" from="253349326" to="251118327" numLanes="1" speed="19.44" />
	<edge id="23267282_251147556_251118330_251118327" from="251118327" to="253349327" numLanes="1" speed="19.44" />
	<edge id="23267282_251147556_251118330_253349327" from="253349327" to="251118328" numLanes="1" speed="19.44" />
	<edge id="23267282_251147556_251118330_251118328" from="251118328" to="251118329" numLanes="1" speed="19.44" />
	<edge id="23267282_251147556_251118330_251118329" from="251118329" to="251118330" numLanes="1" speed="19.44" />
	<edge id="23594435_255509283_251118732_255509283" from="255509283" to="961246133" numLanes="2" speed="25.00" />
	<edge id="23594435_255509283_251118732_961246133" from="961246133" to="251118690" numLanes="2" speed="25.00" />
	<edge id="23594435_255509283_251118732_251118690" from="251118690" to="251118692" numLanes="2" speed="25.00" />
	<edge id="23594435_255509283_251118732_251118692" from="251118692" to="251118699" numLanes="2" speed="25.00" />
	<edge id="23594435_255509283_251118732_251118699" from="251118699" to="1018661906" numLanes="2" speed="25.00" />
	<edge id="23594435_255509283_251118732_1018661906" from="1018661906" to="1018661888" numLanes="2" speed="25.00" />
	<edge id="23594435_255509283_251118732_1018661888" from="1018661888" to="251118713" numLanes="2" speed="25.00" />
	<edge id="23594435_255509283_251118732_251118713" from="251118713" to="1791505448" numLanes="2" speed="25.00" />
	<edge id="23594435_255509283_251118732_1791505448" from="1791505448" to="251118718" numLanes="2" speed="25.00" />
	<edge id="23594435_255509283_251118732_251118718" from="251118718" to="1791505450" numLanes="2" speed="25.00" />
	<edge id="23594435_255509283_251118732_1791505450" from="1791505450" to="251118721" numLanes="2" speed="25.00" />
	<edge id="23594435_255509283_251118732_251118721" from="251118721" to="251118723" numLanes="2" speed="25.00" />
	<edge id="23594435_255509283_251118732_251118723" from="251118723" to="251118731" numLanes="2" speed="25.00" />
	<edge id="23594435_255509283_251118732_251118731" from="251118731" to="251118732" numLanes="2" speed="25.00" />
	<edge id="23551585_255020992_981230183_255020992" from="255020992" to="255021000" numLanes="2" speed="33.33" />
	<edge id="23551585_255020992_981230183_255021000" from="255021000" to="255021001" numLanes="2" speed="33.33" />
	<edge id="23551585_255020992_981230183_255021001" from="255021001" to="255021002" numLanes="2" speed="33.33" />
	<edge id="23551585_255020992_981230183_255021002" from="255021002" to="255021003" numLanes="2" speed="33.33" />
	<edge id="23551585_255020992_981230183_255021003" from="255021003" to="255021004" numLanes="2" speed="33.33" />
	<edge id="23551585_255020992_981230183_255021004" from="255021004" to="255021005" numLanes="2" speed="33.33" />
	<edge id="23551585_255020992_981230183_255021005" from="255021005" to="255021006" numLanes="2" speed="33.33" />
	<edge id="23551585_255020992_981230183_255021006" from="255021006" to="255021007" numLanes="2" speed="33.33" />
	<edge id="23551585_255020992_981230183_255021007" from="255021007" to="255021008" numLanes="2" speed="33.33" />
	<edge id="23551585_255020992_981230183_255021008" from="255021008" to="255021009" numLanes="2" speed="33.33" />
	<edge id="23551585_255020992_981230183_255021009" from="255021009" to="255021010" numLanes="2" speed="33.33" />
	<edge id="23551585_255020992_981230183_255021010" from="255021010" to="255021011" numLanes="2" speed="33.33" />
	<edge id="23551585_255020992_981230183_255021011" from="255021011" to="255021013" numLanes="2" speed="33.33" />
	<edge id="23551585_255020992_981230183_255021013" from="255021013" to="255021015" numLanes="2" speed="33.33" />
	<edge id="23551585_255020992_981230183_255021015" from="255021015" to="255021016" numLanes="2" speed="33.33" />
	<edge id="23551585_255020992_981230183_255021016" from="255021016" to="255021017" numLanes="2" speed="33.33" />
	<edge id="23551585_255020992_981230183_255021017" from="255021017" to="251799078" numLanes="2" speed="33.33" />
	<edge id="23551585_255020992_981230183_251799078" from="251799078" to="251799077" numLanes="2" speed="33.33" />
	<edge id="23551585_255020992_981230183_251799077" from="251799077" to="251799076" numLanes="2" speed="33.33" />
	<edge id="23551585_255020992_981230183_251799076" from="251799076" to="981230183" numLanes="2" speed="33.33" />
	<edge id="23267291_1018808035_961246166_1018808035" from="1018808035" to="360476989" numLanes="1" speed="19.44" />
	<edge id="23267291_1018808035_961246166_360476989" from="360476989" to="6435609376" numLanes="1" speed="19.44" />
	<edge id="23267291_1018808035_961246166_6435609376" from="6435609376" to="6435609377" numLanes="1" speed="19.44" />
	<edge id="23267291_1018808035_961246166_6435609377" from="6435609377" to="251799069" numLanes="1" speed="19.44" />
	<edge id="23267291_1018808035_961246166_251799069" from="251799069" to="6435609379" numLanes="1" speed="19.44" />
	<edge id="23267291_1018808035_961246166_6435609379" from="6435609379" to="1373732072" numLanes="1" speed="19.44" />
	<edge id="23267291_1018808035_961246166_1373732072" from="1373732072" to="6435609378" numLanes="1" speed="19.44" />
	<edge id="23267291_1018808035_961246166_6435609378" from="6435609378" to="251799070" numLanes="1" speed="19.44" />
	<edge id="23267291_1018808035_961246166_251799070" from="251799070" to="6435609380" numLanes="1" speed="19.44" />
	<edge id="23267291_1018808035_961246166_6435609380" from="6435609380" to="1373732068" numLanes="1" speed="19.44" />
	<edge id="23267291_1018808035_961246166_1373732068" from="1373732068" to="1373732066" numLanes="1" speed="19.44" />
	<edge id="23267291_1018808035_961246166_1373732066" from="1373732066" to="1373732064" numLanes="1" speed="19.44" />
	<edge id="23267291_1018808035_961246166_1373732064" from="1373732064" to="1373732062" numLanes="1" speed="19.44" />
	<edge id="23267291_1018808035_961246166_1373732062" from="1373732062" to="1373732057" numLanes="1" speed="19.44" />
	<edge id="23267291_1018808035_961246166_1373732057" from="1373732057" to="961246166" numLanes="1" speed="19.44" />
	<edge id="84417602_251147488_251118330_251147488" from="251147488" to="982335859" numLanes="2" speed="33.33" />
	<edge id="84417602_251147488_251118330_982335859" from="982335859" to="982335848" numLanes="2" speed="33.33" />
	<edge id="84417602_251147488_251118330_982335848" from="982335848" to="251147489" numLanes="2" speed="33.33" />
	<edge id="84417602_251147488_251118330_251147489" from="251147489" to="251147490" numLanes="2" speed="33.33" />
	<edge id="84417602_251147488_251118330_251147490" from="251147490" to="251147491" numLanes="2" speed="33.33" />
	<edge id="84417602_251147488_251118330_251147491" from="251147491" to="251799052" numLanes="2" speed="33.33" />
	<edge id="84417602_251147488_251118330_251799052" from="251799052" to="251118330" numLanes="2" speed="33.33" />
	<edge id="23594446_924406558_255509742_924406558" from="924406558" to="255509741" numLanes="1" speed="19.44" />
	<edge id="23594446_924406558_255509742_255509741" from="255509741" to="251118675" numLanes="1" speed="19.44" />
	<edge id="23594446_924406558_255509742_251118675" from="251118675" to="255509742" numLanes="1" speed="19.44" />
	<edge id="23594446_924406553_924406558_924406553" from="924406553" to="255542194" numLanes="1" speed="19.44" />
	<edge id="23594446_924406553_924406558_255542194" from="255542194" to="924406556" numLanes="1" speed="19.44" />
	<edge id="23594446_924406553_924406558_924406556" from="924406556" to="255542198" numLanes="1" speed="19.44" />