<nodes>
	<node id="961246117" x="676250.2712" y="4307980.0664" z="0.0000" type="priority" />
	<node id="961246118" x="676569.6915" y="4309010.1556" z="0.0000" type="priority" />
	<node id="1737161782" x="676444.6168" y="4309905.2188" z="0.0000" type="priority" />
	<node id="1737161785" x="676434.3977" y="4309966.2513" z="0.0000" type="priority" />
	<node id="1737161786" x="676442.0485" y="4309992.6719" z="0.0000" type="priority" />
	<node id="1737161783" x="676784.6255" y="4309932.0160" z="0.0000" type="priority" />
	<node id="1737161784" x="676434.4494" y="4309939.0699" z="0.0000" type="priority" />
	<node id="253349423" x="676821.5321" y="4309924.0029" z="0.0000" type="priority" />
	<node id="1737161787" x="676456.8431" y="4310015.7543" z="0.0000" type="priority" />
	<node id="1737161788" x="676609.3932" y="4310017.4853" z="0.0000" type="priority" />
	<node id="1791505402" x="676178.4238" y="4307661.3709" z="0.0000" type="priority" />
	<node id="1791505403" x="676166.5454" y="4307664.4819" z="0.0000" type="priority" />
	<node id="961246127" x="676221.1456" y="4307888.1209" z="0.0000" type="priority" />
	<node id="961246122" x="676168.7943" y="4307673.7593" z="0.0000" type="priority" />
	<node id="961246123" x="676189.9980" y="4307768.1153" z="0.0000" type="priority" />
	<node id="1737161792" x="676507.4432" y="4310040.8578" z="0.0000" type="priority" />
	<node id="961246129" x="676079.4006" y="4307311.5357" z="0.0000" type="priority" />
	<node id="1737161790" x="676476.5856" y="4310034.0170" z="0.0000" type="priority" />
	<node id="1737161791" x="676586.6049" y="4310036.9410" z="0.0000" type="priority" />
	<node id="1737161796" x="676505.3439" y="4310047.4622" z="0.0000" type="priority" />
	<node id="360476839" x="677894.5184" y="4309979.3296" z="0.0000" type="priority" />
	<node id="1737161797" x="676560.5937" y="4310047.6859" z="0.0000" type="priority" />
	<node id="1737161794" x="676559.1167" y="4310042.3563" z="0.0000" type="priority" />
	<node id="1737161798" x="676535.3741" y="4310051.3420" z="0.0000" type="priority" />
	<node id="961246120" x="676520.0944" y="4308688.4432" z="0.0000" type="priority" />
	<node id="360476836" x="677658.2936" y="4309822.8226" z="0.0000" type="priority" />
	<node id="360476838" x="677884.4405" y="4309977.3261" z="0.0000" type="priority" />
	<node id="360476837" x="677831.5551" y="4309950.2300" z="0.0000" type="priority" />
	<node id="981230104" x="677568.9103" y="4309454.8795" z="0.0000" type="priority" />
	<node id="961246137" x="676155.3341" y="4307618.1620" z="0.0000" type="priority" />
	<node id="961246133" x="676205.2848" y="4307765.8464" z="0.0000" type="priority" />
	<node id="961246132" x="676189.7107" y="4307688.3161" z="0.0000" type="priority" />
	<node id="360476989" x="676670.3372" y="4309587.9681" z="0.0000" type="priority" />
	<node id="1791505409" x="676180.9765" y="4307671.0326" z="0.0000" type="priority" />
	<node id="6435610510" x="676861.5215" y="4309561.9188" z="0.0000" type="priority" />
	<node id="961246145" x="677823.3762" y="4309962.9045" z="0.0000" type="priority" />
	<node id="6435610509" x="676907.9877" y="4309592.7396" z="0.0000" type="priority" />
	<node id="6435610508" x="676847.5992" y="4309570.8014" z="0.0000" type="priority" />
	<node id="1737160683" x="676642.1971" y="4309984.2069" z="0.0000" type="priority" />
	<node id="6435610501" x="676762.2405" y="4309479.2161" z="0.0000" type="priority" />
	<node id="6435610500" x="676707.7427" y="4309496.0082" z="0.0000" type="priority" />
	<node id="2450409966" x="676214.5031" y="4307723.2351" z="0.0000" type="priority" />
	<node id="6435610503" x="676764.4639" y="4309462.0324" z="0.0000" type="priority" />
	<node id="6435610502" x="676757.5613" y="4309474.7143" z="0.0000" type="priority" />
	<node id="6435610505" x="676768.9081" y="4309452.2159" z="0.0000" type="priority" />
	<node id="6435610504" x="676769.4438" y="4309465.1086" z="0.0000" type="priority" />
	<node id="6435610507" x="676890.6263" y="4309584.3562" z="0.0000" type="priority" />
	<node id="6435610506" x="676851.4463" y="4309577.9829" z="0.0000" type="priority" />
	<node id="961246158" x="676555.3746" y="4308798.1720" z="0.0000" type="priority" />
	<node id="961246157" x="676750.3711" y="4309526.2537" z="0.0000" type="priority" />
	<node id="5683458739" x="676069.7727" y="4307223.2675" z="0.0000" type="priority" />
	<node id="1048813215" x="677772.9623" y="4309908.4485" z="0.0000" type="priority" />
	<node id="1791505448" x="676525.5228" y="4308659.4165" z="0.0000" type="priority" />
	<node id="5683458744" x="676140.4923" y="4307512.3887" z="0.0000" type="priority" />
	<node id="1791505449" x="676539.8980" y="4308737.9205" z="0.0000" type="priority" />
	<node id="1791505447" x="676411.4039" y="4308406.5974" z="0.0000" type="priority" />
	<node id="1018661888" x="676464.6357" y="4308504.3563" z="0.0000" type="priority" />
	<node id="360476990" x="676889.3628" y="4309569.8816" z="0.0000" type="priority" />
	<node id="360476993" x="676930.8824" y="4309607.3764" z="0.0000" type="priority" />
	<node id="961246166" x="676569.8999" y="4309219.4923" z="0.0000" type="priority" />
	<node id="253348669" x="676579.1989" y="4309929.3222" z="0.0000" type="priority" />
	<node id="360476992" x="676825.7274" y="4309562.7835" z="0.0000" type="priority" />
	<node id="253348668" x="676611.5844" y="4309948.5451" z="0.0000" type="priority" />
	<node id="360476995" x="676913.3447" y="4309578.5798" z="0.0000" type="priority" />
	<node id="253348667" x="676619.2224" y="4309985.2147" z="0.0000" type="priority" />
	<node id="360476994" x="676949.1697" y="4309577.8827" z="0.0000" type="priority" />
	<node id="880516367" x="673473.1138" y="4307990.4212" z="0.0000" type="priority" />
	<node id="360476997" x="676945.2248" y="4309572.7531" z="0.0000" type="priority" />
	<node id="253350614" x="676656.9150" y="4309317.1528" z="0.0000" type="priority" />
	<node id="360476996" x="676922.4326" y="4309569.4225" z="0.0000" type="priority" />
	<node id="1791505438" x="676182.7904" y="4307755.9180" z="0.0000" type="priority" />
	<node id="360476999" x="676951.5026" y="4309588.7613" z="0.0000" type="priority" />
	<node id="1791505439" x="676338.7284" y="4308218.1525" z="0.0000" type="priority" />
	<node id="961246163" x="676041.4067" y="4307154.2583" z="0.0000" type="priority" />
	<node id="253350615" x="676706.2256" y="4309330.2695" z="0.0000" type="priority" />
	<node id="253348876" x="676535.4550" y="4310045.7807" z="0.0000" type="priority" />
	<node id="253348877" x="676600.4585" y="4310017.4966" z="0.0000" type="priority" />
	<node id="253349606" x="676706.7451" y="4309943.7434" z="0.0000" type="priority" />
	<node id="1791505462" x="676965.5474" y="4309588.3540" z="0.0000" type="priority" />
	<node id="1791505342" x="676053.0016" y="4307151.4406" z="0.0000" type="priority" />
	<node id="1791505463" x="676901.2058" y="4309588.0130" z="0.0000" type="priority" />
	<node id="1791505464" x="676953.1311" y="4309603.1997" z="0.0000" type="priority" />
	<node id="1791505465" x="677433.1179" y="4309701.5713" z="0.0000" type="priority" />
	<node id="253348874" x="676440.1521" y="4309965.7135" z="0.0000" type="priority" />
	<node id="1791505460" x="676927.1192" y="4309567.7730" z="0.0000" type="priority" />
	<node id="253348875" x="676461.4499" y="4310011.8375" z="0.0000" type="priority" />
	<node id="1791505461" x="676909.1024" y="4309573.5546" z="0.0000" type="priority" />
	<node id="253350600" x="676662.3247" y="4309363.8882" z="0.0000" type="priority" />
	<node id="253350601" x="676665.5396" y="4309412.9508" z="0.0000" type="priority" />
	<node id="1791505466" x="677389.0662" y="4309701.2598" z="0.0000" type="priority" />
	<node id="1791505467" x="677478.8014" y="4309716.1328" z="0.0000" type="priority" />
	<node id="1791505468" x="677449.1202" y="4309719.4527" z="0.0000" type="priority" />
	<node id="1791505469" x="677563.1289" y="4309755.0812" z="0.0000" type="priority" />
	<node id="1791505451" x="676565.7240" y="4308855.2998" z="0.0000" type="priority" />
	<node id="1791505450" x="676563.4951" y="4308770.5823" z="0.0000" type="priority" />
	<node id="1791505459" x="676839.9364" y="4309554.2626" z="0.0000" type="priority" />
	<node id="1791505334" x="676052.8226" y="4307139.5999" z="0.0000" type="priority" />
	<node id="1791505336" x="676035.7294" y="4307141.4958" z="0.0000" type="priority" />
	<node id="961246181" x="676567.7747" y="4308912.2535" z="0.0000" type="priority" />
	<node id="251118329" x="676705.8745" y="4309904.7045" z="0.0000" type="priority" />
	<node id="251118320" x="676736.7835" y="4309569.0556" z="0.0000" type="priority" />
	<node id="251118682" x="676199.5371" y="4307746.5419" z="0.0000" type="priority" />
	<node id="251118680" x="676185.4260" y="4307749.3921" z="0.0000" type="priority" />
	<node id="251118328" x="676665.2685" y="4309893.5033" z="0.0000" type="priority" />
	<node id="251118327" x="676609.1954" y="4309848.5558" z="0.0000" type="priority" />
	<node id="251118326" x="676585.4988" y="4309794.1165" z="0.0000" type="priority" />
	<node id="251118325" x="676586.9791" y="4309740.2841" z="0.0000" type="priority" />
	<node id="251118322" x="676662.2848" y="4309616.0144" z="0.0000" type="priority" />
	<node id="251118321" x="676715.8295" y="4309577.0150" z="0.0000" type="priority" />
	<node id="924406576" x="676918.5553" y="4309602.7366" z="0.0000" type="priority" />
	<node id="924406575" x="676924.3271" y="4309606.0859" z="0.0000" type="priority" />
	<node id="924406578" x="676911.7228" y="4309591.3575" z="0.0000" type="priority" />
	<node id="924406572" x="676943.7188" y="4309603.2110" z="0.0000" type="priority" />
	<node id="251118319" x="676799.9094" y="4309565.1929" z="0.0000" type="priority" />
	<node id="251118318" x="676872.4963" y="4309579.3090" z="0.0000" type="priority" />
	<node id="924406573" x="676937.4960" y="4309606.4474" z="0.0000" type="priority" />
	<node id="981230183" x="677585.6103" y="4309460.2515" z="0.0000" type="priority" />
	<node id="981230180" x="673402.2866" y="4307826.3651" z="0.0000" type="priority" />
	<node id="255021015" x="677874.3187" y="4309035.1499" z="0.0000" type="priority" />
	<node id="255021013" x="677945.2264" y="4308968.3223" z="0.0000" type="priority" />
	<node id="255021010" x="678111.1042" y="4308848.1029" z="0.0000" type="priority" />
	<node id="255021011" x="678026.3478" y="4308904.5236" z="0.0000" type="priority" />
	<node id="981230186" x="673388.8116" y="4307836.2851" z="0.0000" type="priority" />
	<node id="251118317" x="676791.5677" y="4309549.5274" z="0.0000" type="priority" />
	<node id="251118316" x="677004.5906" y="4309598.8999" z="0.0000" type="priority" />
	<node id="251118678" x="676159.5413" y="4307717.9355" z="0.0000" type="priority" />
	<node id="924406570" x="676951.1076" y="4309583.1561" z="0.0000" type="priority" />
	<node id="251118675" x="676191.4596" y="4307694.3290" z="0.0000" type="priority" />
	<node id="251118311" x="677211.1231" y="4309651.3418" z="0.0000" type="priority" />
	<node id="255021016" x="677806.7498" y="4309110.1813" z="0.0000" type="priority" />
	<node id="251118794" x="674169.9330" y="4308925.1968" z="0.0000" type="priority" />
	<node id="255021017" x="677745.3771" y="4309190.9601" z="0.0000" type="priority" />
	<node id="924406567" x="676939.8491" y="4309569.1461" z="0.0000" type="priority" />
	<node id="924406561" x="676214.8176" y="4307718.8561" z="0.0000" type="priority" />
	<node id="251118309" x="677305.7364" y="4309673.8507" z="0.0000" type="priority" />
	<node id="251118308" x="677374.5936" y="4309688.2653" z="0.0000" type="priority" />
	<node id="251118782" x="674613.2882" y="4309262.2843" z="0.0000" type="priority" />
	<node id="255021003" x="678876.7807" y="4308496.3437" z="0.0000" type="priority" />
	<node id="255021004" x="678760.0678" y="4308558.2080" z="0.0000" type="priority" />
	<node id="255021001" x="679084.2736" y="4308342.5842" z="0.0000" type="priority" />
	<node id="255021002" x="678984.2010" y="4308421.9339" z="0.0000" type="priority" />
	<node id="255021000" x="679180.6819" y="4308250.8160" z="0.0000" type="priority" />
	<node id="251118789" x="674325.2463" y="4309058.5456" z="0.0000" type="priority" />
	<node id="255021009" x="678212.5492" y="4308794.5909" z="0.0000" type="priority" />
	<node id="251118786" x="674508.7432" y="4309194.4742" z="0.0000" type="priority" />
	<node id="255021007" x="678414.8685" y="4308706.8900" z="0.0000" type="priority" />
	<node id="255021008" x="678311.1228" y="4308749.9764" z="0.0000" type="priority" />
	<node id="255021005" x="678640.5669" y="4308612.9932" z="0.0000" type="priority" />
	<node id="255021006" x="678524.5676" y="4308662.2515" z="0.0000" type="priority" />
	<node id="924406553" x="676176.0184" y="4307747.1505" z="0.0000" type="priority" />
	<node id="924406556" x="676163.5286" y="4307736.4235" z="0.0000" type="priority" />
	<node id="924406558" x="676170.4153" y="4307699.5343" z="0.0000" type="priority" />
	<node id="253350598" x="676707.9253" y="4309337.6694" z="0.0000" type="priority" />
	<node id="251118779" x="674736.8591" y="4309335.4243" z="0.0000" type="priority" />
	<node id="251118776" x="674882.0383" y="4309412.4089" z="0.0000" type="priority" />
	<node id="251118774" x="675085.6372" y="4309503.5707" z="0.0000" type="priority" />
	<node id="251799053" x="676675.7904" y="4309958.3082" z="0.0000" type="priority" />
	<node id="255542194" x="676169.9981" y="4307743.5853" z="0.0000" type="priority" />
	<node id="251799052" x="676727.4426" y="4309910.3612" z="0.0000" type="priority" />
	<node id="251799055" x="675869.3782" y="4309785.9324" z="0.0000" type="priority" />
	<node id="251799054" x="676741.6881" y="4309935.8637" z="0.0000" type="priority" />
	<node id="255542198" x="676161.0371" y="4307731.4157" z="0.0000" type="priority" />
	<node id="251799059" x="676246.7302" y="4309826.5844" z="0.0000" type="priority" />
	<node id="251799058" x="676120.4925" y="4309839.7599" z="0.0000" type="priority" />
	<node id="253350220" x="676779.6859" y="4309405.8979" z="0.0000" type="priority" />
	<node id="253350221" x="676775.5985" y="4309451.7326" z="0.0000" type="priority" />
	<node id="251118361" x="679163.8630" y="4308236.4436" z="0.0000" type="priority" />
	<node id="251118360" x="679072.7491" y="4308322.7688" z="0.0000" type="priority" />
	<node id="255542199" x="676163.7947" y="4307706.5599" z="0.0000" type="priority" />
	<node id="251118367" x="679603.6112" y="4307792.5246" z="0.0000" type="priority" />
	<node id="981230139" x="677564.6061" y="4309491.6261" z="0.0000" type="priority" />
	<node id="251118353" x="678305.3738" y="4308725.2179" z="0.0000" type="priority" />
	<node id="251118352" x="678203.3383" y="4308771.3756" z="0.0000" type="priority" />
	<node id="251118351" x="678102.5034" y="4308825.9119" z="0.0000" type="priority" />
	<node id="251118350" x="678016.2964" y="4308883.9435" z="0.0000" type="priority" />
	<node id="253350218" x="676750.2263" y="4309351.9511" z="0.0000" type="priority" />
	<node id="251118359" x="678972.0889" y="4308401.2392" z="0.0000" type="priority" />
	<node id="251118358" x="678866.6771" y="4308472.3855" z="0.0000" type="priority" />
	<node id="251118357" x="678752.4145" y="4308534.4609" z="0.0000" type="priority" />
	<node id="251118356" x="678632.9399" y="4308587.3036" z="0.0000" type="priority" />
	<node id="251118355" x="678517.0541" y="4308636.8977" z="0.0000" type="priority" />
	<node id="253350219" x="676765.0625" y="4309370.0936" z="0.0000" type="priority" />
	<node id="981230149" x="677547.5817" y="4309485.6361" z="0.0000" type="priority" />
	<node id="251118354" x="678407.8689" y="4308682.2031" z="0.0000" type="priority" />
	<node id="251799075" x="677546.9240" y="4309516.8459" z="0.0000" type="priority" />
	<node id="251799074" x="677486.2652" y="4309591.9683" z="0.0000" type="priority" />
	<node id="251799077" x="677650.0901" y="4309348.7499" z="0.0000" type="priority" />
	<node id="251799076" x="677604.7893" y="4309429.4245" z="0.0000" type="priority" />
	<node id="251799071" x="677222.0758" y="4309802.7577" z="0.0000" type="priority" />
	<node id="251799070" x="676667.7470" y="4309491.9495" z="0.0000" type="priority" />
	<node id="251799073" x="677425.7240" y="4309653.7911" z="0.0000" type="priority" />
	<node id="251799072" x="677353.6406" y="4309715.0999" z="0.0000" type="priority" />
	<node id="253349327" x="676630.7006" y="4309870.6226" z="0.0000" type="priority" />
	<node id="251799078" x="677696.0503" y="4309266.9578" z="0.0000" type="priority" />
	<node id="251118342" x="677731.6603" y="4309177.1269" z="0.0000" type="priority" />
	<node id="251118341" x="677681.4219" y="4309255.4693" z="0.0000" type="priority" />
	<node id="251118340" x="677635.9383" y="4309338.8380" z="0.0000" type="priority" />
	<node id="251830887" x="675097.0233" y="4309489.6433" z="0.0000" type="priority" />
	<node id="981230233" x="677557.2389" y="4309473.5719" z="0.0000" type="priority" />
	<node id="255509064" x="676209.7701" y="4307704.7305" z="0.0000" type="priority" />
	<node id="253349324" x="676594.1158" y="4309718.2689" z="0.0000" type="priority" />
	<node id="253349325" x="676583.3098" y="4309767.8510" z="0.0000" type="priority" />
	<node id="253349326" x="676594.0087" y="4309823.2214" z="0.0000" type="priority" />
	<node id="255509063" x="676214.1166" y="4307728.5120" z="0.0000" type="priority" />
	<node id="251118349" x="677934.1899" y="4308949.1082" z="0.0000" type="priority" />
	<node id="251118348" x="677859.0176" y="4309018.8491" z="0.0000" type="priority" />
	<node id="251118347" x="677790.0389" y="4309097.5466" z="0.0000" type="priority" />
	<node id="251799064" x="676690.4015" y="4309339.6206" z="0.0000" type="priority" />
	<node id="251799063" x="676556.8538" y="4309728.9624" z="0.0000" type="priority" />
	<node id="251799066" x="676657.1779" y="4309387.6801" z="0.0000" type="priority" />
	<node id="251799065" x="676674.4591" y="4309348.0586" z="0.0000" type="priority" />
	<node id="251799060" x="676325.2280" y="4309813.2339" z="0.0000" type="priority" />
	<node id="251799062" x="676514.9665" y="4309756.4418" z="0.0000" type="priority" />
	<node id="251799061" x="676443.4079" y="4309784.1363" z="0.0000" type="priority" />
	<node id="251830892" x="674745.9706" y="4309322.7342" z="0.0000" type="priority" />
	<node id="251830893" x="674620.7642" y="4309247.8368" z="0.0000" type="priority" />
	<node id="251830890" x="674889.9820" y="4309398.7937" z="0.0000" type="priority" />
	<node id="251799068" x="676728.7304" y="4309524.9592" z="0.0000" type="priority" />
	<node id="251799067" x="676750.9962" y="4309494.8101" z="0.0000" type="priority" />
	<node id="251830897" x="674335.1955" y="4309045.6181" z="0.0000" type="priority" />
	<node id="251799069" x="676680.8625" y="4309546.3191" z="0.0000" type="priority" />
	<node id="251830895" x="674518.7971" y="4309180.7386" z="0.0000" type="priority" />
	<node id="251118331" x="676878.5264" y="4309900.1943" z="0.0000" type="priority" />
	<node id="251118330" x="676808.4367" y="4309907.9755" z="0.0000" type="priority" />
	<node id="251118692" x="676276.2893" y="4308012.4924" z="0.0000" type="priority" />
	<node id="251118690" x="676256.3738" y="4307957.3506" z="0.0000" type="priority" />
	<node id="251118339" x="677593.0335" y="4309416.7349" z="0.0000" type="priority" />
	<node id="251118338" x="677534.5538" y="4309504.8644" z="0.0000" type="priority" />
	<node id="251118337" x="677471.2484" y="4309581.5709" z="0.0000" type="priority" />
	<node id="251118336" x="677418.0092" y="4309637.3061" z="0.0000" type="priority" />
	<node id="251118699" x="676342.3832" y="4308187.7093" z="0.0000" type="priority" />
	<node id="251118335" x="677333.8058" y="4309709.5026" z="0.0000" type="priority" />
	<node id="251118334" x="677215.1807" y="4309787.2351" z="0.0000" type="priority" />
	<node id="251118333" x="677111.0163" y="4309835.6344" z="0.0000" type="priority" />
	<node id="251118332" x="677037.9275" y="4309862.2455" z="0.0000" type="priority" />
	<node id="255509283" x="676207.2555" y="4307740.8732" z="0.0000" type="priority" />
	<node id="251118723" x="676578.4145" y="4308852.2743" z="0.0000" type="priority" />
	<node id="251118721" x="676566.8936" y="4308788.1691" z="0.0000" type="priority" />
	<node id="982335848" x="676187.1609" y="4309876.0901" z="0.0000" type="priority" />
	<node id="982335849" x="674100.5067" y="4308835.7034" z="0.0000" type="priority" />
	<node id="360477000" x="676978.2985" y="4309605.0512" z="0.0000" type="priority" />
	<node id="251118718" x="676549.8318" y="4308724.7065" z="0.0000" type="priority" />
	<node id="360477001" x="677493.1814" y="4309734.7886" z="0.0000" type="priority" />
	<node id="360477003" x="677842.1401" y="4309977.1180" z="0.0000" type="priority" />
	<node id="251118713" x="676494.6974" y="4308583.6544" z="0.0000" type="priority" />
	<node id="7435945401" x="676056.3494" y="4309838.0198" z="0.0000" type="priority" />
	<node id="251118811" x="673656.6432" y="4308307.9853" z="0.0000" type="priority" />
	<node id="1018661906" x="676357.7757" y="4308223.8517" z="0.0000" type="priority" />
	<node id="413477864" x="677209.6663" y="4309662.9239" z="0.0000" type="priority" />
	<node id="251147490" x="676456.3908" y="4309897.3203" z="0.0000" type="priority" />
	<node id="251147491" x="676551.5785" y="4309904.1431" z="0.0000" type="priority" />
	<node id="924406540" x="676026.2719" y="4307130.1481" z="0.0000" type="priority" />
	<node id="982335880" x="673795.2912" y="4308510.5213" z="0.0000" type="priority" />
	<node id="413477863" x="677002.0622" y="4309609.9250" z="0.0000" type="priority" />
	<node id="251830900" x="674180.9923" y="4308912.6711" z="0.0000" type="priority" />
	<node id="982335882" x="674671.9403" y="4309297.5689" z="0.0000" type="priority" />
	<node id="982335883" x="673484.7715" y="4307976.7196" z="0.0000" type="priority" />
	<node id="1048811822" x="677852.0896" y="4309985.2147" z="0.0000" type="priority" />
	<node id="251830902" x="674036.1439" y="4308769.5180" z="0.0000" type="priority" />
	<node id="982335884" x="674403.3299" y="4309119.5400" z="0.0000" type="priority" />
	<node id="251830908" x="673730.3810" y="4308389.6519" z="0.0000" type="priority" />
	<node id="251830906" x="673881.2530" y="4308592.4250" z="0.0000" type="priority" />
	<node id="5855269794" x="676054.0156" y="4307155.7826" z="0.0000" type="priority" />
	<node id="251118764" x="675865.2181" y="4309801.7518" z="0.0000" type="priority" />
	<node id="251118762" x="676071.0648" y="4309869.0057" z="0.0000" type="priority" />
	<node id="251118759" x="676286.0830" y="4309906.0559" z="0.0000" type="priority" />
	<node id="251147489" x="676288.1573" y="4309888.8910" z="0.0000" type="priority" />
	<node id="251147488" x="675959.3216" y="4309818.3592" z="0.0000" type="priority" />
	<node id="251830911" x="673671.2923" y="4308298.3137" z="0.0000" type="priority" />
	<node id="982335875" x="675948.8341" y="4309833.1715" z="0.0000" type="priority" />
	<node id="1048811715" x="677861.7482" y="4309969.2312" z="0.0000" type="priority" />
	<node id="982335876" x="674986.0123" y="4309442.2698" z="0.0000" type="priority" />
	<node id="253593259" x="676450.5654" y="4309907.6390" z="0.0000" type="priority" />
	<node id="982335878" x="674242.8144" y="4308990.5052" z="0.0000" type="priority" />
	<node id="982335872" x="676186.3713" y="4309892.8284" z="0.0000" type="priority" />
	<node id="982335874" x="673560.3325" y="4308143.5454" z="0.0000" type="priority" />
	<node id="1048810984" x="677863.4056" y="4309998.8831" z="0.0000" type="priority" />
	<node id="251118753" x="676494.8841" y="4309917.2898" z="0.0000" type="priority" />
	<node id="982335879" x="673962.9479" y="4308688.7706" z="0.0000" type="priority" />
	<node id="251118751" x="676599.9439" y="4309936.4926" z="0.0000" type="priority" />
	<node id="251118750" x="676619.5105" y="4309966.4998" z="0.0000" type="priority" />
	<node id="251118749" x="676611.5259" y="4310002.7868" z="0.0000" type="priority" />
	<node id="251118748" x="676582.8852" y="4310030.6619" z="0.0000" type="priority" />
	<node id="251118747" x="676480.4185" y="4310028.6284" z="0.0000" type="priority" />
	<node id="982335864" x="674087.1537" y="4308845.6249" z="0.0000" type="priority" />
	<node id="982335866" x="675443.3352" y="4309641.6732" z="0.0000" type="priority" />
	<node id="982335867" x="673808.2548" y="4308499.7692" z="0.0000" type="priority" />
	<node id="982335862" x="674256.2035" y="4308978.9415" z="0.0000" type="priority" />
	<node id="251118746" x="676448.1504" y="4309990.5540" z="0.0000" type="priority" />
	<node id="251118745" x="676440.6990" y="4309939.2761" z="0.0000" type="priority" />
	<node id="251118744" x="676472.7185" y="4309874.2887" z="0.0000" type="priority" />
	<node id="251118743" x="676526.4417" y="4309801.1585" z="0.0000" type="priority" />
	<node id="982335868" x="674812.1978" y="4309377.1083" z="0.0000" type="priority" />
	<node id="982335869" x="674418.7469" y="4309109.2538" z="0.0000" type="priority" />
	<node id="251118739" x="676780.6614" y="4309428.6052" z="0.0000" type="priority" />
	<node id="5855269793" x="676042.4398" y="4307158.5230" z="0.0000" type="priority" />
	<node id="251118738" x="676773.5251" y="4309386.1838" z="0.0000" type="priority" />
	<node id="251118736" x="676738.0025" y="4309342.2838" z="0.0000" type="priority" />
	<node id="982335853" x="674975.4201" y="4309457.5696" z="0.0000" type="priority" />
	<node id="982335855" x="673949.9840" y="4308699.9333" z="0.0000" type="priority" />
	<node id="982335856" x="673573.6855" y="4308134.0339" z="0.0000" type="priority" />
	<node id="982335850" x="675448.1971" y="4309626.2468" z="0.0000" type="priority" />
	<node id="251118735" x="676677.2565" y="4309324.9805" z="0.0000" type="priority" />
	<node id="251118733" x="676615.6537" y="4309281.5641" z="0.0000" type="priority" />
	<node id="251118732" x="676581.6269" y="4309039.7588" z="0.0000" type="priority" />
	<node id="251118731" x="676580.8685" y="4308905.9279" z="0.0000" type="priority" />
	<node id="982335859" x="676071.9769" y="4309851.0376" z="0.0000" type="priority" />
	<node id="6435609372" x="676762.3610" y="4309564.2088" z="0.0000" type="priority" />
	<node id="6435609371" x="676901.0241" y="4309572.8741" z="0.0000" type="priority" />
	<node id="6435609370" x="676917.1246" y="4309573.2567" z="0.0000" type="priority" />
	<node id="6435610486" x="676682.3808" y="4309343.3388" z="0.0000" type="priority" />
	<node id="6435610485" x="676670.5937" y="4309432.5069" z="0.0000" type="priority" />
	<node id="6435610488" x="676721.4549" y="4309341.3142" z="0.0000" type="priority" />
	<node id="6435610487" x="676699.4406" y="4309338.0794" z="0.0000" type="priority" />
	<node id="1048813377" x="677873.4771" y="4309974.5809" z="0.0000" type="priority" />
	<node id="251147218" x="676659.0272" y="4309446.9945" z="0.0000" type="priority" />
	<node id="251147217" x="676694.2044" y="4309484.2240" z="0.0000" type="priority" />
	<node id="251147219" x="676600.1883" y="4309344.7556" z="0.0000" type="priority" />
	<node id="6435609379" x="676681.3912" y="4309528.4868" z="0.0000" type="priority" />
	<node id="6435609378" x="676673.6327" y="4309502.2412" z="0.0000" type="priority" />
	<node id="6435609377" x="676678.6681" y="4309561.8267" z="0.0000" type="priority" />
	<node id="6435609376" x="676675.1140" y="4309575.6828" z="0.0000" type="priority" />
	<node id="6435609375" x="676696.7225" y="4309587.7251" z="0.0000" type="priority" />
	<node id="6435609374" x="676820.1473" y="4309568.6993" z="0.0000" type="priority" />
	<node id="6435609373" x="676780.7840" y="4309563.5326" z="0.0000" type="priority" />
	<node id="6435609383" x="676659.1223" y="4309396.5512" z="0.0000" type="priority" />
	<node id="6435610493" x="676744.3992" y="4309356.1069" z="0.0000" type="priority" />
	<node id="6435609382" x="676658.6126" y="4309374.7205" z="0.0000" type="priority" />
	<node id="6435610492" x="676646.0341" y="4309312.2126" z="0.0000" type="priority" />
	<node id="6435609381" x="676620.9976" y="4309389.4921" z="0.0000" type="priority" />
	<node id="6435610495" x="676772.7819" y="4309403.1230" z="0.0000" type="priority" />
	<node id="6435609380" x="676654.5379" y="4309472.0335" z="0.0000" type="priority" />
	<node id="6435610494" x="676753.7765" y="4309364.6557" z="0.0000" type="priority" />
	<node id="6435610497" x="676778.1299" y="4309440.1745" z="0.0000" type="priority" />
	<node id="6435610496" x="676780.7848" y="4309417.2708" z="0.0000" type="priority" />
	<node id="6435610499" x="676701.2361" y="4309458.7754" z="0.0000" type="priority" />
	<node id="6435610498" x="676774.3111" y="4309427.8414" z="0.0000" type="priority" />
	<node id="251147441" x="676911.4784" y="4309584.8340" z="0.0000" type="priority" />
	<node id="6435610491" x="676666.1474" y="4309321.7119" z="0.0000" type="priority" />
	<node id="6435610490" x="676689.1875" y="4309327.5679" z="0.0000" type="priority" />
	<node id="1018808053" x="676601.0229" y="4309688.6646" z="0.0000" type="priority" />
	<node id="1018808051" x="676771.2874" y="4309443.5747" z="0.0000" type="priority" />
	<node id="1791505470" x="677555.2742" y="4309766.4640" z="0.0000" type="priority" />
	<node id="1791505471" x="677602.5522" y="4309781.0733" z="0.0000" type="priority" />
	<node id="1791505472" x="677610.4708" y="4309802.3600" z="0.0000" type="priority" />
	<node id="6435610489" x="676724.9573" y="4309335.5962" z="0.0000" type="priority" />
	<node id="6435609384" x="676681.9726" y="4309435.3373" z="0.0000" type="priority" />
	<node id="251832187" x="676951.3679" y="4309886.5236" z="0.0000" type="priority" />
	<node id="1791505387" x="676106.0095" y="4307373.2884" z="0.0000" type="priority" />
	<node id="251147220" x="676590.7167" y="4309319.4490" z="0.0000" type="priority" />
	<node id="1791505377" x="676074.7546" y="4307244.6534" z="0.0000" type="priority" />