<?xml version="1.0" encoding="UTF-8"?>

<!-- generated on Tue Jul 14 01:10:23 2020 by Eclipse SUMO netconvert Version 1.2.0
<configuration xmlns:xsi="http://www.w3.org/2001/XMLSchema-instance" xsi:noNamespaceSchemaLocation="http://sumo.dlr.de/xsd/netconvertConfiguration.xsd">

    <input>
        <node-files value="/home/vsimrti/scenarios/ids/sumo/gualtar15/gualtar15.nod.xml"/>
        <edge-files value="/home/vsimrti/scenarios/ids/sumo/gualtar15/gualtar15.edg.xml"/>
        <connection-files value="/home/vsimrti/scenarios/ids/sumo/gualtar15/gualtar15.con.xml"/>
    </input>

    <output>
        <output-file value="/home/vsimrti/scenarios/ids/sumo/gualtar15/gualtar15.net.xml"/>
    </output>

</configuration>
-->

<net version="1.1" junctionCornerDetail="5" limitTurnSpeed="5.50" xmlns:xsi="http://www.w3.org/2001/XMLSchema-instance" xsi:noNamespaceSchemaLocation="http://sumo.dlr.de/xsd/net_file.xsd">

    <location netOffset="-673388.81,-4307124.97" convBoundary="0.00,0.00,6230.49,2926.37" origBoundary="673388.81,4307124.97,679619.30,4310051.34" projParameter="!"/>

    <edge id=":1018661888_0" function="internal">
        <lane id=":1018661888_0_0" index="0" speed="25.00" length="0.30" shape="3080.26,1377.54 3080.36,1377.82"/>
        <lane id=":1018661888_0_1" index="1" speed="25.00" length="0.30" shape="3077.27,1378.68 3077.37,1378.95"/>
    </edge>
    <edge id=":1018661906_0" function="internal">
        <lane id=":1018661906_0_0" index="0" speed="25.00" length="0.14" shape="2973.38,1097.00 2973.45,1097.17"/>
        <lane id=":1018661906_0_1" index="1" speed="25.00" length="0.14" shape="2970.44,1098.25 2970.46,1098.31"/>
    </edge>
    <edge id=":1018661929_0" function="internal">
        <lane id=":1018661929_0_0" index="0" speed="12.50" length="0.29" shape="2777.75,472.64 2777.81,472.90"/>
        <lane id=":1018661929_0_1" index="1" speed="12.50" length="0.29" shape="2774.64,473.41 2774.72,473.71"/>
    </edge>
    <edge id=":1018808021_0" function="internal">
        <lane id=":1018808021_0_0" index="0" speed="16.67" length="0.29" shape="3342.09,2222.92 3342.02,2222.86 3341.97,2222.83 3341.92,2222.80 3341.85,2222.76"/>
    </edge>
    <edge id=":1018808022_0" function="internal">
        <lane id=":1018808022_0_0" index="0" speed="16.67" length="0.20" shape="3383.89,2290.37 3383.89,2290.31 3383.89,2290.27 3383.88,2290.23 3383.88,2290.17"/>
    </edge>
    <edge id=":1018808023_0" function="internal">
        <lane id=":1018808023_0_0" index="0" speed="33.33" length="0.30" shape="5903.27,976.32 5903.48,976.11"/>
        <lane id=":1018808023_0_1" index="1" speed="33.33" length="0.30" shape="5905.54,978.58 5905.76,978.36"/>
    </edge>
    <edge id=":1018808032_0" function="internal">
        <lane id=":1018808032_0_0" index="0" speed="16.67" length="0.28" shape="3378.02,2264.60 3378.00,2264.52 3377.98,2264.47 3377.96,2264.42 3377.92,2264.35"/>
    </edge>
    <edge id=":1018808035_0" function="internal">
        <lane id=":1018808035_0_0" index="0" speed="16.67" length="25.56" shape="3284.98,2467.09 3269.95,2487.76"/>
    </edge>
    <edge id=":1018808035_1" function="internal">
        <lane id=":1018808035_1_0" index="0" speed="4.80" length="2.99" shape="3284.98,2467.09 3282.97,2468.22 3282.32,2468.03"/>
    </edge>
    <edge id=":1018808035_2" function="internal">
        <lane id=":1018808035_2_0" index="0" speed="3.65" length="2.34" shape="3284.98,2467.09 3283.63,2467.59 3282.74,2467.44"/>
    </edge>
    <edge id=":1018808035_6" function="internal">
        <lane id=":1018808035_6_0" index="0" speed="4.80" length="6.28" shape="3282.32,2468.03 3280.79,2467.57 3279.33,2465.77 3279.50,2463.41"/>
    </edge>
    <edge id=":1018808035_7" function="internal">
        <lane id=":1018808035_7_0" index="0" speed="3.65" length="2.34" shape="3282.74,2467.44 3282.33,2466.65 3282.39,2465.21"/>
    </edge>
    <edge id=":1018808035_3" function="internal">
        <lane id=":1018808035_3_0" index="0" speed="18.05" length="25.54" shape="3267.37,2485.87 3270.18,2481.28 3273.67,2474.78 3277.03,2468.21 3279.50,2463.41"/>
    </edge>
    <edge id=":1018808035_4" function="internal">
        <lane id=":1018808035_4_0" index="0" speed="16.67" length="25.54" shape="3267.37,2485.87 3282.39,2465.21"/>
    </edge>
    <edge id=":1018808035_5" function="internal">
        <lane id=":1018808035_5_0" index="0" speed="3.65" length="2.34" shape="3267.37,2485.87 3268.72,2485.37 3269.61,2485.52"/>
    </edge>
    <edge id=":1018808035_8" function="internal">
        <lane id=":1018808035_8_0" index="0" speed="3.65" length="2.34" shape="3269.61,2485.52 3270.01,2486.32 3269.95,2487.76"/>
    </edge>
    <edge id=":1018808038_0" function="internal">
        <lane id=":1018808038_0_0" index="0" speed="18.05" length="0.28" shape="3356.70,2362.98 3356.87,2362.76"/>
    </edge>
    <edge id=":1018808047_0" function="internal">
        <lane id=":1018808047_0_0" index="0" speed="18.05" length="3.00" shape="3331.76,2397.24 3333.53,2394.81"/>
    </edge>
    <edge id=":1018808047_1" function="internal">
        <lane id=":1018808047_1_0" index="0" speed="3.65" length="4.67" shape="3331.76,2397.24 3333.12,2396.74 3334.00,2396.88 3334.41,2397.68 3334.35,2399.12"/>
    </edge>
    <edge id=":1018808048_0" function="internal">
        <lane id=":1018808048_0_0" index="0" speed="16.67" length="0.22" shape="3370.96,2250.94 3370.93,2250.88 3370.91,2250.84 3370.89,2250.80 3370.85,2250.75"/>
    </edge>
    <edge id=":1018808049_0" function="internal">
        <lane id=":1018808049_0_0" index="0" speed="19.44" length="0.10" shape="3077.04,2745.65 3077.07,2745.59"/>
    </edge>
    <edge id=":1018808051_0" function="internal">
        <lane id=":1018808051_0_0" index="0" speed="16.67" length="0.13" shape="3380.90,2318.30 3380.93,2318.17"/>
    </edge>
    <edge id=":1018808053_0" function="internal">
        <lane id=":1018808053_0_0" index="0" speed="3.65" length="4.67" shape="3214.58,2563.17 3213.22,2563.67 3212.34,2563.52 3211.93,2562.72 3212.00,2561.28"/>
    </edge>
    <edge id=":1018808053_1" function="internal">
        <lane id=":1018808053_1_0" index="0" speed="18.05" length="19.16" shape="3198.09,2574.41 3201.40,2571.51 3205.32,2568.09 3209.09,2564.56 3212.00,2561.28"/>
    </edge>
    <edge id=":1018808053_2" function="internal">
        <lane id=":1018808053_2_0" index="0" speed="18.05" length="19.16" shape="3200.68,2576.74 3212.00,2561.28"/>
    </edge>
    <edge id=":1048810984_0" function="internal">
        <lane id=":1048810984_0_0" index="0" speed="19.44" length="0.44" shape="4470.53,2876.50 4470.50,2876.44 4470.47,2876.40 4470.45,2876.36 4470.41,2876.31"/>
        <lane id=":1048810984_0_1" index="1" speed="19.44" length="0.44" shape="4473.37,2875.04 4473.28,2874.86 4473.22,2874.74 4473.14,2874.63 4473.03,2874.47"/>
    </edge>
    <edge id=":1048811715_0" function="internal">
        <lane id=":1048811715_0_0" index="0" speed="19.44" length="0.43" shape="4475.13,2839.97 4475.18,2840.00 4475.22,2840.02 4475.26,2840.04 4475.32,2840.07"/>
        <lane id=":1048811715_0_1" index="1" speed="19.44" length="0.43" shape="4473.43,2842.67 4473.59,2842.78 4473.70,2842.84 4473.82,2842.90 4473.99,2842.98"/>
    </edge>
    <edge id=":1048811822_0" function="internal">
        <lane id=":1048811822_0_0" index="0" speed="19.44" length="0.39" shape="4460.09,2863.85 4460.05,2863.81 4460.02,2863.78 4459.99,2863.75 4459.94,2863.72"/>
        <lane id=":1048811822_0_1" index="1" speed="19.44" length="0.39" shape="4462.40,2861.63 4462.27,2861.51 4462.19,2861.42 4462.10,2861.34 4461.96,2861.23"/>
    </edge>
    <edge id=":1048813215_0" function="internal">
        <lane id=":1048813215_0_0" index="0" speed="19.44" length="0.28" shape="4386.88,2779.52 4387.08,2779.67"/>
        <lane id=":1048813215_0_1" index="1" speed="19.44" length="0.28" shape="4384.97,2782.09 4385.22,2782.27"/>
    </edge>
    <edge id=":1048813281_0" function="internal">
        <lane id=":1048813281_0_0" index="0" speed="19.44" length="0.49" shape="4465.99,2870.02 4465.95,2869.96 4465.92,2869.92 4465.88,2869.88 4465.83,2869.83"/>
        <lane id=":1048813281_0_1" index="1" speed="19.44" length="0.49" shape="4468.61,2868.18 4468.48,2868.00 4468.39,2867.88 4468.29,2867.77 4468.14,2867.61"/>
    </edge>
    <edge id=":1048813377_0" function="internal">
        <lane id=":1048813377_0_0" index="0" speed="19.44" length="0.58" shape="4486.12,2845.00 4486.20,2845.03 4486.26,2845.05 4486.32,2845.07 4486.40,2845.09"/>
        <lane id=":1048813377_0_1" index="1" speed="19.44" length="0.58" shape="4484.80,2847.91 4485.03,2848.01 4485.20,2848.08 4485.37,2848.13 4485.62,2848.20"/>
    </edge>
    <edge id=":1373732048_0" function="internal">
        <lane id=":1373732048_0_0" index="0" speed="19.44" length="0.30" shape="3199.59,1972.33 3199.60,1972.63"/>
        <lane id=":1373732048_0_1" index="1" speed="19.44" length="0.30" shape="3196.40,1972.44 3196.41,1972.74"/>
    </edge>
    <edge id=":1373732049_0" function="internal">
        <lane id=":1373732049_0_0" index="0" speed="25.00" length="0.27" shape="3172.82,1990.40 3172.83,1990.21"/>
        <lane id=":1373732049_0_1" index="1" speed="25.00" length="0.27" shape="3176.01,1990.65 3176.03,1990.31"/>
    </edge>
    <edge id=":1373732050_0" function="internal">
        <lane id=":1373732050_0_0" index="0" speed="22.22" length="0.30" shape="3195.48,2007.34 3195.47,2007.64"/>
        <lane id=":1373732050_0_1" index="1" speed="22.22" length="0.30" shape="3192.28,2007.27 3192.27,2007.56"/>
    </edge>
    <edge id=":1373732051_0" function="internal">
        <lane id=":1373732051_0_0" index="0" speed="19.44" length="7.92" shape="3197.69,2009.35 3198.16,2017.26"/>
    </edge>
    <edge id=":1373732052_0" function="internal">
        <lane id=":1373732052_0_0" index="0" speed="25.00" length="3.49" shape="3170.96,2020.65 3170.85,2019.55 3170.75,2018.79 3170.70,2018.04 3170.75,2016.94"/>
        <lane id=":1373732052_0_1" index="1" speed="25.00" length="3.49" shape="3174.15,2020.42 3174.05,2019.46 3173.96,2018.80 3173.90,2018.14 3173.94,2017.19"/>
    </edge>
    <edge id=":1373732053_0" function="internal">
        <lane id=":1373732053_0_0" index="0" speed="19.44" length="0.34" shape="3194.87,2033.26 3194.87,2033.31 3194.87,2033.34 3194.87,2033.37 3194.87,2033.42"/>
        <lane id=":1373732053_0_1" index="1" speed="19.44" length="0.34" shape="3191.67,2033.18 3191.66,2033.33 3191.66,2033.43 3191.67,2033.54 3191.68,2033.69"/>
    </edge>
    <edge id=":1373732054_0" function="internal">
        <lane id=":1373732054_0_0" index="0" speed="19.44" length="0.10" shape="3200.09,2040.28 3200.08,2040.18"/>
    </edge>
    <edge id=":1373732055_0" function="internal">
        <lane id=":1373732055_0_0" index="0" speed="19.44" length="0.16" shape="3206.81,2087.37 3206.82,2087.42 3206.83,2087.45 3206.83,2087.48 3206.84,2087.52"/>
    </edge>
    <edge id=":1373732056_0" function="internal">
        <lane id=":1373732056_0_0" index="0" speed="19.44" length="0.30" shape="3217.94,2132.96 3217.96,2133.05 3217.98,2133.10 3218.00,2133.16 3218.04,2133.24"/>
    </edge>
    <edge id=":1373732057_0" function="internal">
        <lane id=":1373732057_0_0" index="0" speed="19.44" length="3.31" shape="3181.99,2148.10 3181.74,2147.14 3181.53,2146.50 3181.37,2145.85 3181.29,2144.87"/>
    </edge>
    <edge id=":1373732058_0" function="internal">
        <lane id=":1373732058_0_0" index="0" speed="19.44" length="0.36" shape="3207.85,2144.41 3207.86,2144.46 3207.87,2144.50 3207.88,2144.53 3207.89,2144.58"/>
        <lane id=":1373732058_0_1" index="1" speed="19.44" length="0.36" shape="3204.69,2144.91 3204.72,2145.07 3204.74,2145.18 3204.77,2145.29 3204.81,2145.44"/>
    </edge>
    <edge id=":1373732059_0" function="internal">
        <lane id=":1373732059_0_0" index="0" speed="25.00" length="0.13" shape="3186.26,2147.31 3186.23,2147.15"/>
        <lane id=":1373732059_0_1" index="1" speed="25.00" length="0.13" shape="3189.38,2146.60 3189.37,2146.55"/>
    </edge>
    <edge id=":1373732060_0" function="internal">
        <lane id=":1373732060_0_0" index="0" speed="19.44" length="0.21" shape="3247.49,2176.89 3247.53,2176.94 3247.56,2176.97 3247.59,2177.00 3247.64,2177.04"/>
    </edge>
    <edge id=":1373732061_0" function="internal">
        <lane id=":1373732061_0_0" index="0" speed="19.44" length="0.38" shape="3219.75,2187.18 3219.76,2187.23 3219.77,2187.27 3219.79,2187.31 3219.81,2187.36"/>
        <lane id=":1373732061_0_1" index="1" speed="19.44" length="0.38" shape="3216.67,2188.04 3216.71,2188.20 3216.75,2188.31 3216.79,2188.42 3216.85,2188.58"/>
    </edge>
    <edge id=":1373732062_0" function="internal">
        <lane id=":1373732062_0_0" index="0" speed="19.44" length="0.10" shape="3197.46,2216.12 3197.44,2216.05"/>
    </edge>
    <edge id=":1373732063_0" function="internal">
        <lane id=":1373732063_0_0" index="0" speed="19.44" length="0.19" shape="3234.66,2223.47 3234.70,2223.55"/>
        <lane id=":1373732063_0_1" index="1" speed="19.44" length="0.19" shape="3231.70,2224.68 3231.81,2224.94"/>
    </edge>
    <edge id=":1373732064_0" function="internal">
        <lane id=":1373732064_0_0" index="0" speed="19.44" length="3.21" shape="3210.48,2262.13 3210.09,2261.26 3209.80,2260.67 3209.54,2260.07 3209.26,2259.17"/>
    </edge>
    <edge id=":1373732065_0" function="internal">
        <lane id=":1373732065_0_0" index="0" speed="19.44" length="0.25" shape="3264.73,2277.53 3264.81,2277.63"/>
        <lane id=":1373732065_0_1" index="1" speed="19.44" length="0.25" shape="3262.05,2279.27 3262.27,2279.58"/>
    </edge>
    <edge id=":1373732066_0" function="internal">
        <lane id=":1373732066_0_0" index="0" speed="19.44" length="0.31" shape="3221.57,2288.68 3221.52,2288.60 3221.49,2288.55 3221.46,2288.49 3221.43,2288.41"/>
    </edge>
    <edge id=":1373732067_0" function="internal">
        <lane id=":1373732067_0_0" index="0" speed="25.00" length="3.25" shape="3247.91,2299.20 3245.95,2296.46"/>
        <lane id=":1373732067_0_1" index="1" speed="25.00" length="3.25" shape="3250.51,2297.34 3248.69,2294.80"/>
    </edge>
    <edge id=":1373732068_0" function="internal">
        <lane id=":1373732068_0_0" index="0" speed="19.44" length="3.12" shape="3242.75,2320.18 3240.83,2317.71"/>
    </edge>
    <edge id=":1373732069_0" function="internal">
        <lane id=":1373732069_0_0" index="0" speed="19.44" length="0.29" shape="3344.81,2364.44 3344.85,2364.47 3344.87,2364.49 3344.89,2364.51 3344.93,2364.53"/>
        <lane id=":1373732069_0_1" index="1" speed="19.44" length="0.29" shape="3342.75,2366.88 3342.85,2366.97 3342.92,2367.02 3342.99,2367.08 3343.10,2367.15"/>
    </edge>
    <edge id=":1373732070_0" function="internal">
        <lane id=":1373732070_0_0" index="0" speed="25.00" length="0.36" shape="3330.86,2387.05 3330.73,2386.97 3330.64,2386.90 3330.55,2386.84 3330.43,2386.73"/>
        <lane id=":1373732070_0_1" index="1" speed="25.00" length="0.36" shape="3332.61,2384.37 3332.56,2384.34 3332.53,2384.32 3332.50,2384.30 3332.46,2384.26"/>
    </edge>
    <edge id=":1373732071_0" function="internal">
        <lane id=":1373732071_0_0" index="0" speed="19.44" length="0.17" shape="3372.47,2383.80 3372.54,2383.85"/>
        <lane id=":1373732071_0_1" index="1" speed="19.44" length="0.17" shape="3370.64,2386.43 3370.84,2386.56"/>
    </edge>
    <edge id=":1373732072_0" function="internal">
        <lane id=":1373732072_0_0" index="0" speed="19.44" length="0.35" shape="3289.09,2392.33 3289.08,2392.23 3289.06,2392.16 3289.04,2392.09 3289.00,2391.99"/>
    </edge>
    <edge id=":1737160683_0" function="internal">
        <lane id=":1737160683_0_0" index="0" speed="19.44" length="0.22" shape="3254.53,2860.37 3254.48,2860.41 3254.45,2860.44 3254.42,2860.47 3254.37,2860.51"/>
    </edge>
    <edge id=":1737161782_0" function="internal">
        <lane id=":1737161782_0_0" index="0" speed="19.44" length="0.48" shape="3054.27,2779.78 3054.31,2779.65 3054.35,2779.56 3054.40,2779.47 3054.48,2779.35"/>
    </edge>
    <edge id=":1737161783_0" function="internal">
        <lane id=":1737161783_0_0" index="0" speed="19.44" length="0.20" shape="3396.15,2808.61 3396.10,2808.62 3396.06,2808.63 3396.02,2808.63 3395.96,2808.64"/>
    </edge>
    <edge id=":1737161784_0" function="internal">
        <lane id=":1737161784_0_0" index="0" speed="19.44" length="3.49" shape="3044.03,2817.09 3043.98,2816.06 3043.88,2815.34 3043.88,2814.63 3044.11,2813.64"/>
    </edge>
    <edge id=":1737161785_0" function="internal">
        <lane id=":1737161785_0_0" index="0" speed="19.44" length="0.46" shape="3044.05,2841.72 3044.01,2841.59 3043.99,2841.50 3043.99,2841.41 3043.99,2841.27"/>
    </edge>
    <edge id=":1737161786_0" function="internal">
        <lane id=":1737161786_0_0" index="0" speed="19.44" length="0.46" shape="3051.89,2868.56 3051.82,2868.45 3051.77,2868.36 3051.74,2868.27 3051.70,2868.14"/>
    </edge>
    <edge id=":1737161787_0" function="internal">
        <lane id=":1737161787_0_0" index="0" speed="19.44" length="3.43" shape="3066.95,2891.95 3066.25,2891.23 3065.88,2890.64 3065.57,2890.00 3065.07,2889.12"/>
    </edge>
    <edge id=":1737161788_0" function="internal">
        <lane id=":1737161788_0_0" index="0" speed="19.44" length="3.14" shape="3223.83,2891.50 3221.62,2893.73"/>
    </edge>
    <edge id=":1737161790_0" function="internal">
        <lane id=":1737161790_0_0" index="0" speed="19.44" length="0.50" shape="3087.10,2910.49 3086.96,2910.43 3086.88,2910.38 3086.80,2910.32 3086.69,2910.22"/>
    </edge>
    <edge id=":1737161791_0" function="internal">
        <lane id=":1737161791_0_0" index="0" speed="19.24" length="3.53" shape="3198.83,2913.18 3198.00,2913.79 3197.34,2914.06 3196.63,2914.25 3195.63,2914.59"/>
    </edge>
    <edge id=":1737161792_0" function="internal">
        <lane id=":1737161792_0_0" index="0" speed="19.44" length="0.40" shape="3118.92,2914.26 3119.03,2914.31 3119.11,2914.34 3119.19,2914.36 3119.31,2914.38"/>
    </edge>
    <edge id=":1737161794_0" function="internal">
        <lane id=":1737161794_0_0" index="0" speed="19.44" length="0.50" shape="3169.58,2915.87 3169.72,2915.85 3169.82,2915.83 3169.92,2915.79 3170.05,2915.72"/>
    </edge>
    <edge id=":1737161796_0" function="internal">
        <lane id=":1737161796_0_0" index="0" speed="19.44" length="3.52" shape="3119.30,2924.46 3118.26,2924.39 3117.52,2924.39 3116.82,2924.30 3115.85,2923.94"/>
    </edge>
    <edge id=":1737161797_0" function="internal">
        <lane id=":1737161797_0_0" index="0" speed="19.44" length="0.40" shape="3172.39,2924.19 3172.28,2924.23 3172.21,2924.26 3172.13,2924.28 3172.01,2924.30"/>
    </edge>
    <edge id=":1737161798_0" function="internal">
        <lane id=":1737161798_0_0" index="0" speed="19.44" length="0.44" shape="3146.79,2927.95 3146.66,2927.97 3146.57,2927.98 3146.49,2927.97 3146.36,2927.95"/>
    </edge>
    <edge id=":1791505334_0" function="internal">
        <lane id=":1791505334_0_0" index="0" speed="13.89" length="0.46" shape="2668.83,14.79 2668.82,14.85 2668.82,14.90 2668.82,14.95 2668.82,15.02"/>
        <lane id=":1791505334_0_1" index="1" speed="13.89" length="0.46" shape="2665.66,14.37 2665.63,14.58 2665.62,14.72 2665.62,14.86 2665.62,15.07"/>
    </edge>
    <edge id=":1791505336_0" function="internal">
        <lane id=":1791505336_0_0" index="0" speed="13.89" length="0.89" shape="2642.89,19.29 2642.84,19.17 2642.80,19.09 2642.74,19.01 2642.66,18.91"/>
        <lane id=":1791505336_0_1" index="1" speed="13.89" length="0.89" shape="2645.82,17.98 2645.65,17.63 2645.53,17.39 2645.37,17.17 2645.12,16.86"/>
    </edge>
    <edge id=":1791505342_0" function="internal">
        <lane id=":1791505342_0_0" index="0" speed="13.89" length="0.69" shape="2668.98,25.71 2668.98,25.81 2668.99,25.88 2669.00,25.95 2669.02,26.05"/>
        <lane id=":1791505342_0_1" index="1" speed="13.89" length="0.69" shape="2665.78,25.75 2665.79,26.06 2665.80,26.27 2665.84,26.48 2665.90,26.77"/>
    </edge>
    <edge id=":1791505377_0" function="internal">
        <lane id=":1791505377_0_0" index="0" speed="13.89" length="0.30" shape="2690.58,118.43 2690.65,118.70"/>
        <lane id=":1791505377_0_1" index="1" speed="13.89" length="0.30" shape="2687.46,119.16 2687.54,119.46"/>
    </edge>
    <edge id=":1791505387_0" function="internal">
        <lane id=":1791505387_0_0" index="0" speed="13.89" length="0.30" shape="2721.83,247.03 2721.89,247.31"/>
        <lane id=":1791505387_0_1" index="1" speed="13.89" length="0.30" shape="2718.72,247.78 2718.79,248.08"/>
    </edge>
    <edge id=":1791505402_0" function="internal">
        <lane id=":1791505402_0_0" index="0" speed="11.11" length="0.10" shape="2794.25,535.17 2794.25,535.17"/>
        <lane id=":1791505402_0_1" index="1" speed="11.11" length="0.10" shape="2791.16,535.99 2791.16,535.99"/>
    </edge>
    <edge id=":1791505403_0" function="internal">
        <lane id=":1791505403_0_0" index="0" speed="13.89" length="0.30" shape="2773.10,540.78 2773.03,540.49"/>
        <lane id=":1791505403_0_1" index="1" speed="13.89" length="0.30" shape="2776.21,540.03 2776.14,539.74"/>
    </edge>
    <edge id=":1791505409_0" function="internal">
        <lane id=":1791505409_0_0" index="0" speed="11.11" length="0.67" shape="2796.63,544.18 2796.66,544.28 2796.68,544.34 2796.71,544.41 2796.75,544.49"/>
        <lane id=":1791505409_0_1" index="1" speed="11.11" length="0.67" shape="2793.54,545.00 2793.62,545.29 2793.68,545.48 2793.76,545.67 2793.90,545.94"/>
    </edge>
    <edge id=":1791505438_0" function="internal">
        <lane id=":1791505438_0_0" index="0" speed="13.89" length="0.40" shape="2790.05,633.73 2790.02,633.68 2790.00,633.64 2789.97,633.61 2789.94,633.56"/>
        <lane id=":1791505438_0_1" index="1" speed="13.89" length="0.40" shape="2792.80,632.10 2792.71,631.95 2792.65,631.85 2792.58,631.75 2792.47,631.61"/>
    </edge>
    <edge id=":1791505439_0" function="internal">
        <lane id=":1791505439_0_0" index="0" speed="25.00" length="0.29" shape="2945.48,1095.02 2945.37,1094.73"/>
        <lane id=":1791505439_0_1" index="1" speed="25.00" length="0.29" shape="2948.47,1093.87 2948.37,1093.62"/>
    </edge>
    <edge id=":1791505447_0" function="internal">
        <lane id=":1791505447_0_0" index="0" speed="25.00" length="0.10" shape="3018.11,1283.35 3018.11,1283.35"/>
        <lane id=":1791505447_0_1" index="1" speed="25.00" length="0.10" shape="3021.10,1282.20 3021.10,1282.20"/>
    </edge>
    <edge id=":1791505448_0" function="internal">
        <lane id=":1791505448_0_0" index="0" speed="25.00" length="0.12" shape="3141.16,1532.63 3141.21,1532.77"/>
        <lane id=":1791505448_0_1" index="1" speed="25.00" length="0.12" shape="3138.19,1533.84 3138.21,1533.88"/>
    </edge>
    <edge id=":1791505449_0" function="internal">
        <lane id=":1791505449_0_0" index="0" speed="25.00" length="0.41" shape="3146.54,1614.54 3146.52,1614.48 3146.51,1614.44 3146.50,1614.40 3146.48,1614.35"/>
        <lane id=":1791505449_0_1" index="1" speed="25.00" length="0.41" shape="3149.64,1613.75 3149.59,1613.57 3149.56,1613.45 3149.51,1613.33 3149.45,1613.16"/>
    </edge>
    <edge id=":1791505450_0" function="internal">
        <lane id=":1791505450_0_0" index="0" speed="25.00" length="3.32" shape="3178.43,1641.36 3178.74,1642.35 3178.97,1643.02 3179.18,1643.69 3179.40,1644.70"/>
        <lane id=":1791505450_0_1" index="1" speed="25.00" length="3.32" shape="3175.36,1642.28 3175.65,1643.17 3175.86,1643.78 3176.05,1644.39 3176.25,1645.30"/>
    </edge>
    <edge id=":1791505451_0" function="internal">
        <lane id=":1791505451_0_0" index="0" speed="25.00" length="0.46" shape="3172.13,1730.96 3172.13,1730.89 3172.13,1730.84 3172.12,1730.80 3172.11,1730.73"/>
        <lane id=":1791505451_0_1" index="1" speed="25.00" length="0.46" shape="3175.33,1730.84 3175.32,1730.64 3175.31,1730.50 3175.29,1730.36 3175.26,1730.16"/>
    </edge>
    <edge id=":1791505459_0" function="internal">
        <lane id=":1791505459_0_0" index="0" speed="19.44" length="0.25" shape="3452.74,2424.77 3452.91,2424.83"/>
        <lane id=":1791505459_0_1" index="1" speed="19.44" length="0.25" shape="3451.54,2427.73 3451.84,2427.85"/>
    </edge>
    <edge id=":1791505460_0" function="internal">
        <lane id=":1791505460_0_0" index="0" speed="19.44" length="1.37" shape="3535.65,2435.25 3536.29,2435.03 3536.74,2434.91 3537.20,2434.85 3537.87,2434.81"/>
        <lane id=":1791505460_0_1" index="1" speed="18.62" length="1.37" shape="3536.71,2438.27 3537.10,2438.14 3537.37,2438.07 3537.64,2438.03 3538.05,2438.01"/>
        <lane id=":1791505460_0_2" index="2" speed="19.44" length="1.37" shape="3537.78,2441.29 3537.90,2441.25 3537.99,2441.22 3538.09,2441.21 3538.22,2441.20"/>
    </edge>
    <edge id=":1791505461_0" function="internal">
        <lane id=":1791505461_0_0" index="0" speed="19.44" length="1.24" shape="3519.45,2443.69 3519.63,2443.71 3519.76,2443.70 3519.88,2443.68 3520.06,2443.63"/>
        <lane id=":1791505461_0_1" index="1" speed="9.35" length="1.24" shape="3519.18,2446.88 3519.73,2446.92 3520.11,2446.91 3520.48,2446.84 3521.01,2446.68"/>
    </edge>
    <edge id=":1791505462_0" function="internal">
        <lane id=":1791505462_0_0" index="0" speed="19.44" length="0.67" shape="3578.75,2458.97 3578.84,2459.03 3578.90,2459.06 3578.96,2459.09 3579.05,2459.12"/>
        <lane id=":1791505462_0_1" index="1" speed="19.44" length="0.67" shape="3577.03,2461.67 3577.28,2461.83 3577.46,2461.93 3577.65,2462.01 3577.93,2462.12"/>
    </edge>
    <edge id=":1791505463_0" function="internal">
        <lane id=":1791505463_0_0" index="0" speed="25.00" length="0.89" shape="3510.38,2467.48 3510.27,2467.41 3510.19,2467.36 3510.11,2467.33 3509.99,2467.29"/>
        <lane id=":1791505463_0_1" index="1" speed="22.87" length="0.89" shape="3512.21,2464.86 3511.88,2464.64 3511.65,2464.50 3511.40,2464.39 3511.03,2464.26"/>
    </edge>
    <edge id=":1791505464_0" function="internal">
        <lane id=":1791505464_0_0" index="0" speed="19.44" length="4.71" shape="3564.39,2483.03 3559.72,2483.03"/>
        <lane id=":1791505464_0_1" index="1" speed="19.44" length="4.71" shape="3564.46,2479.83 3559.72,2479.83"/>
    </edge>
    <edge id=":1791505465_0" function="internal">
        <lane id=":1791505465_0_0" index="0" speed="19.44" length="0.27" shape="4045.37,2571.92 4045.76,2572.02"/>
        <lane id=":1791505465_0_1" index="1" speed="19.44" length="0.27" shape="4044.66,2575.04 4044.79,2575.07"/>
    </edge>
    <edge id=":1791505466_0" function="internal">
        <lane id=":1791505466_0_0" index="0" speed="19.44" length="0.27" shape="3999.12,2580.96 3998.99,2580.92"/>
        <lane id=":1791505466_0_1" index="1" speed="19.44" length="0.27" shape="4000.05,2577.89 3999.66,2577.79"/>
    </edge>
    <edge id=":1791505467_0" function="internal">
        <lane id=":1791505467_0_0" index="0" speed="19.44" length="3.32" shape="4088.59,2585.67 4089.58,2585.97 4090.26,2586.15 4090.94,2586.37 4091.89,2586.75"/>
        <lane id=":1791505467_0_1" index="1" speed="19.44" length="3.32" shape="4087.62,2588.72 4088.52,2588.99 4089.14,2589.15 4089.75,2589.34 4090.62,2589.69"/>
    </edge>
    <edge id=":1791505468_0" function="internal">
        <lane id=":1791505468_0_0" index="0" speed="19.44" length="0.24" shape="4058.91,2599.07 4058.74,2599.02"/>
        <lane id=":1791505468_0_1" index="1" speed="19.44" length="0.24" shape="4059.96,2596.05 4059.67,2595.96"/>
    </edge>
    <edge id=":1791505469_0" function="internal">
        <lane id=":1791505469_0_0" index="0" speed="19.44" length="3.40" shape="4176.45,2625.81 4177.39,2626.31 4178.00,2626.71 4178.59,2627.14 4179.46,2627.75"/>
        <lane id=":1791505469_0_1" index="1" speed="19.44" length="3.40" shape="4175.03,2628.67 4175.86,2629.12 4176.40,2629.48 4176.92,2629.88 4177.70,2630.42"/>
    </edge>
    <edge id=":1791505470_0" function="internal">
        <lane id=":1791505470_0_0" index="0" speed="19.44" length="0.34" shape="4164.13,2645.70 4164.09,2645.67 4164.06,2645.65 4164.03,2645.64 4163.98,2645.61"/>
        <lane id=":1791505470_0_1" index="1" speed="19.44" length="0.34" shape="4165.87,2643.01 4165.75,2642.93 4165.66,2642.88 4165.57,2642.83 4165.44,2642.76"/>
    </edge>
    <edge id=":1791505471_0" function="internal">
        <lane id=":1791505471_0_0" index="0" speed="19.44" length="3.19" shape="4216.38,2652.09 4219.02,2654.06"/>
        <lane id=":1791505471_0_1" index="1" speed="19.44" length="3.19" shape="4214.62,2654.76 4217.10,2656.62"/>
    </edge>
    <edge id=":1791505472_0" function="internal">
        <lane id=":1791505472_0_0" index="0" speed="19.44" length="0.22" shape="4218.95,2681.35 4218.86,2681.29"/>
        <lane id=":1791505472_0_1" index="1" speed="19.44" length="0.22" shape="4220.87,2678.80 4220.60,2678.61"/>
    </edge>
    <edge id=":2450409966_0" function="internal">
        <lane id=":2450409966_0_0" index="0" speed="19.44" length="0.30" shape="2827.30,598.23 2827.28,598.53"/>
    </edge>
    <edge id=":251118308_0" function="internal">
        <lane id=":251118308_0_0" index="0" speed="19.44" length="0.29" shape="3986.65,2558.57 3986.96,2558.64"/>
        <lane id=":251118308_0_1" index="1" speed="19.44" length="0.29" shape="3986.00,2561.70 3986.25,2561.76"/>
    </edge>
    <edge id=":251118309_0" function="internal">
        <lane id=":251118309_0_0" index="0" speed="19.44" length="0.26" shape="3917.87,2544.17 3918.08,2544.21"/>
        <lane id=":251118309_0_1" index="1" speed="19.44" length="0.26" shape="3917.12,2547.28 3917.42,2547.35"/>
    </edge>
    <edge id=":251118311_0" function="internal">
        <lane id=":251118311_0_0" index="0" speed="19.44" length="0.29" shape="3823.33,2521.67 3823.59,2521.74"/>
        <lane id=":251118311_0_1" index="1" speed="19.44" length="0.29" shape="3822.54,2524.78 3822.85,2524.85"/>
    </edge>