<?xml version="1.0" ?>
<!-- Generated by VSimRTI -->
<routes>
	<vType id="default" length="7.5" maxSpeed="50" minGap="2.0" carFollowModel="Krauss" accel="0.80" decel="4.5" sigma="0.5" tau="1"/>
	<route id="1" edges="23594435_255509283_251118732_251118699 23594435_255509283_251118732_1018661906 23594435_255509283_251118732_1018661888 23594435_255509283_251118732_251118713 23594435_255509283_251118732_1791505448 23594435_255509283_251118732_251118718 23594435_255509283_251118732_1791505450 23594435_255509283_251118732_251118721 23594435_255509283_251118732_251118723 23594435_255509283_251118732_251118731 23217980_251118732_1373732051_251118732 23217980_251118732_1373732051_1373732048 123082861_1373732051_1373732054_1373732051 123082883_1373732054_253350615_1373732054 123082883_1373732054_253350615_1373732055 123082883_1373732054_253350615_1373732056 123082883_1373732054_253350615_251118733 123082883_1373732054_253350615_1373732060 123082883_1373732054_253350615_6435610492 123082883_1373732054_253350615_253350614 123082883_1373732054_253350615_6435610491 123082883_1373732054_253350615_251118735 123082883_1373732054_253350615_6435610490 87574290_253350615_251118736_253350615 87574290_253350615_251118736_6435610489 23267287_251118736_251799067_251118736 23267287_251118736_251799067_253350218 23267287_251118736_251799067_253350219 23267287_251118736_251799067_251118738 23267287_251118736_251799067_253350220 23267287_251118736_251799067_6435610496 23267287_251118736_251799067_251118739 23267287_251118736_251799067_6435610497 23267287_251118736_251799067_253350221 23267287_251118736_251799067_6435610504 23267287_251118736_251799067_6435610501 23267289_251799067_251799068_251799067 23267290_251799068_251118322_251799068 23267290_251118322_251147556_251118322 23267290_251147556_251118744_251147556 23267290_251147556_251118744_251118743 23267283_251118744_251118745_251118744 23267283_251118744_251118745_253593259 23267284_251118745_251118753_251118745 23267284_251118745_251118753_253348874 23267284_251118745_251118753_251118746 23267284_251118745_251118753_253348875 23267284_251118745_251118753_251118747 23267284_251118745_251118753_1737161792 23267284_251118745_251118753_253348876 23267284_251118745_251118753_1737161794 23267284_251118745_251118753_251118748 23267284_251118745_251118753_253348877 23267284_251118745_251118753_251118749 23267284_251118745_251118753_253348667 23267284_251118745_251118753_251118750 23267284_251118745_251118753_253348668 23267284_251118745_251118753_251118751 23267284_251118745_251118753_253348669 35273344_251118753_981230186_251118753 35273344_251118753_981230186_251118759 35273344_251118753_981230186_982335872 35273344_251118753_981230186_251118762 35273344_251118753_981230186_982335875 35273344_251118753_981230186_251118764 35273344_251118753_981230186_982335866 35273344_251118753_981230186_251118774 35273344_251118753_981230186_982335853 35273344_251118753_981230186_251118776 35273344_251118753_981230186_982335868 35273344_251118753_981230186_251118779 35273344_251118753_981230186_982335882 35273344_251118753_981230186_251118782 35273344_251118753_981230186_251118786 35273344_251118753_981230186_982335884 35273344_251118753_981230186_251118789 35273344_251118753_981230186_982335878 35273344_251118753_981230186_251118794 35273344_251118753_981230186_982335864 35273344_251118753_981230186_251118800 35273344_251118753_981230186_982335855 35273344_251118753_981230186_251118804 35273344_251118753_981230186_982335880 35273344_251118753_981230186_251118809 35273344_251118753_981230186_251118811 35273344_251118753_981230186_982335874 35273344_251118753_981230186_880516367" />
	<route id="2" edges="23594435_255509283_251118732_251118699 23594435_255509283_251118732_1018661906 23594435_255509283_251118732_1018661888 23594435_255509283_251118732_251118713 23594435_255509283_251118732_1791505448 23594435_255509283_251118732_251118718 23594435_255509283_251118732_1791505450 23594435_255509283_251118732_251118721 23594435_255509283_251118732_251118723 23594435_255509283_251118732_251118731 23217980_251118732_1373732051_251118732 23217980_251118732_1373732051_1373732048 123082861_1373732051_1373732054_1373732051 123082883_1373732054_253350615_1373732054 123082883_1373732054_253350615_1373732055 123082883_1373732054_253350615_1373732056 123082883_1373732054_253350615_251118733 123082883_1373732054_253350615_1373732060 123082883_1373732054_253350615_6435610492 123082883_1373732054_253350615_253350614 123082883_1373732054_253350615_6435610491 123082883_1373732054_253350615_251118735 123082883_1373732054_253350615_6435610490 87574290_253350615_251118736_253350615 87574290_253350615_251118736_6435610489 23267287_251118736_251799067_251118736 23267287_251118736_251799067_253350218 23267287_251118736_251799067_253350219 23267287_251118736_251799067_251118738 23267287_251118736_251799067_253350220 23267287_251118736_251799067_6435610496 23267287_251118736_251799067_251118739 23267287_251118736_251799067_6435610497 23267287_251118736_251799067_253350221 23267287_251118736_251799067_6435610504 23267287_251118736_251799067_6435610501 23267289_251799067_251799068_251799067 23267290_251799068_251118322_251799068 23267290_251118322_251147556_251118322 23267290_251147556_251118744_251147556 23267290_251147556_251118744_251118743 23267283_251118744_251118745_251118744 23267283_251118744_251118745_253593259 23267284_251118745_251118753_251118745 23267284_251118745_251118753_253348874 23267284_251118745_251118753_251118746 23267284_251118745_251118753_253348875 23267284_251118745_251118753_251118747 23267284_251118745_251118753_1737161792 23267284_251118745_251118753_253348876 23267284_251118745_251118753_1737161794 23267284_251118745_251118753_251118748 23267284_251118745_251118753_253348877 23267284_251118745_251118753_251118749 23267284_251118745_251118753_253348667 23267284_251118745_251118753_251118750 23267284_251118745_251118753_253348668 23267284_251118745_251118753_251118751 23267284_251118745_251118753_253348669" />
	<route id="3" edges="23594435_255509283_251118732_251118699 23594435_255509283_251118732_1018661906 23594435_255509283_251118732_1018661888 23594435_255509283_251118732_251118713 23594435_255509283_251118732_1791505448 23594435_255509283_251118732_251118718 23594435_255509283_251118732_1791505450 23594435_255509283_251118732_251118721 23594435_255509283_251118732_251118723 23594435_255509283_251118732_251118731 23217980_251118732_1373732051_251118732 23217980_251118732_1373732051_1373732048 123082861_1373732051_1373732054_1373732051 123082883_1373732054_253350615_1373732054 123082883_1373732054_253350615_1373732055 123082883_1373732054_253350615_1373732056 123082883_1373732054_253350615_251118733 123082883_1373732054_253350615_1373732060 123082883_1373732054_253350615_6435610492 123082883_1373732054_253350615_253350614 123082883_1373732054_253350615_6435610491 123082883_1373732054_253350615_251118735 123082883_1373732054_253350615_6435610490 87574290_253350615_251118736_253350615 87574290_253350615_251118736_6435610489 23267287_251118736_251799067_251118736 23267287_251118736_251799067_253350218 23267287_251118736_251799067_253350219 23267287_251118736_251799067_251118738 23267287_251118736_251799067_253350220 23267287_251118736_251799067_6435610496 23267287_251118736_251799067_251118739 23267287_251118736_251799067_6435610497 23267287_251118736_251799067_253350221 23267287_251118736_251799067_6435610504 23267287_251118736_251799067_6435610501 23267289_251799067_251799068_251799067 23267290_251799068_251118322_251799068 23267290_251118322_251147556_251118322 23267290_251147556_251118744_251147556 23267290_251147556_251118744_251118743 23267283_251118744_251118745_251118744 23267283_251118744_251118745_253593259 23267284_251118745_251118753_251118745 23267284_251118745_251118753_253348874 23267284_251118745_251118753_251118746 23267284_251118745_251118753_253348875 23267284_251118745_251118753_251118747 23267284_251118745_251118753_1737161792 23267284_251118745_251118753_253348876 23267284_251118745_251118753_1737161794 23267284_251118745_251118753_251118748 23267284_251118745_251118753_253348877 23267284_251118745_251118753_251118749 23267284_251118745_251118753_253348667 23267284_251118745_251118753_251118750 23267284_251118745_251118753_253348668 23267284_251118745_251118753_251118751 23267284_251118745_251118753_253348669 35273344_251118753_981230186_251118753 35273344_251118753_981230186_251118759 35273344_251118753_981230186_982335872 35273344_251118753_981230186_251118762 35273344_251118753_981230186_982335875 35273344_251118753_981230186_251118764 35273344_251118753_981230186_982335866 35273344_251118753_981230186_251118774 35273344_251118753_981230186_982335853 35273344_251118753_981230186_251118776 35273344_251118753_981230186_982335868 35273344_251118753_981230186_251118779 35273344_251118753_981230186_982335882 35273344_251118753_981230186_251118782 35273344_251118753_981230186_251118786 35273344_251118753_981230186_982335884 35273344_251118753_981230186_251118789 35273344_251118753_981230186_982335878 35273344_251118753_981230186_251118794 35273344_251118753_981230186_982335864 35273344_251118753_981230186_251118800 35273344_251118753_981230186_982335855 35273344_251118753_981230186_251118804 35273344_251118753_981230186_982335880 35273344_251118753_981230186_251118809 35273344_251118753_981230186_251118811 35273344_251118753_981230186_982335874 35273344_251118753_981230186_880516367" />
	<route id="4" edges="23551585_255020992_981230183_255021015 23551585_255020992_981230183_255021016 23551585_255020992_981230183_255021017 23551585_255020992_981230183_251799078 23551585_255020992_981230183_251799077 23551585_255020992_981230183_251799076 84417615_981230183_981230139_981230183 84417579_981230139_251799073_981230139 84417579_981230139_251799073_251799075 84417579_981230139_251799073_251799074 23267296_251799073_251799072_251799073 23267297_251799072_251799071_251799072 35273343_251799071_251147526_251799071 35273343_251799071_251147526_251147525 35273344_251147526_253349423_251147526 35273344_251147526_253349423_251147527 35273344_251147526_253349423_251147528 23267280_253349423_1737161784_253349423 23267280_253349423_1737161784_1737161783 23267280_253349423_1737161784_251799054 23267280_253349423_1737161784_253349606 23267280_253349423_1737161784_251799053 23267280_253349423_1737161784_1737160683 23267280_253349423_1737161784_1737161788 23267280_253349423_1737161784_1737161791 23267280_253349423_1737161784_1737161797 23267280_253349423_1737161784_1737161798 23267280_253349423_1737161784_1737161796 23267280_253349423_1737161784_1737161790 23267280_253349423_1737161784_1737161787 23267280_253349423_1737161784_1737161786 23267280_253349423_1737161784_1737161785 161754186_1737161784_1018808049_1737161784 161754186_1737161784_1018808049_1737161782 87574288_1018808049_1018808053_1018808049 87574285_1018808053_1018808035_1018808053 23267291_1018808035_961246166_1018808035 23267291_1018808035_961246166_360476989 23267291_1018808035_961246166_6435609376 23267291_1018808035_961246166_6435609377 23267291_1018808035_961246166_251799069 23267291_1018808035_961246166_6435609379 23267291_1018808035_961246166_1373732072 23267291_1018808035_961246166_6435609378 23267291_1018808035_961246166_251799070 23267291_1018808035_961246166_6435609380 23267291_1018808035_961246166_1373732068 23267291_1018808035_961246166_1373732066 23267291_1018808035_961246166_1373732064 23267291_1018808035_961246166_1373732062 23267291_1018808035_961246166_1373732057 32118961_961246166_1373732052_961246166 123082849_1373732052_1373732049_1373732052 123082850_1373732049_961246123_1373732049 123082850_1373732049_961246123_961246118 123082850_1373732049_961246123_961246181 123082850_1373732049_961246123_1791505451 123082850_1373732049_961246123_961246158 123082850_1373732049_961246123_1791505449 123082850_1373732049_961246123_961246120 123082850_1373732049_961246123_1791505447 123082850_1373732049_961246123_1791505439 123082850_1373732049_961246123_961246117 123082850_1373732049_961246123_961246127 82587878_961246123_924406553_961246123 82587878_961246123_924406553_1791505438 23594446_924406553_924406558_924406553 23594446_924406553_924406558_255542194 23594446_924406553_924406558_924406556 23594446_924406553_924406558_255542198 23594446_924406553_924406558_251118678 23594446_924406553_924406558_255542199 23594446_924406558_255509742_924406558 23594446_924406558_255509742_255509741 23594446_924406558_255509742_251118675 23594446_255509742_255509283_255509742 23594446_255509742_255509283_255509064 23594446_255509742_255509283_924406561 23594446_255509742_255509283_2450409966 23594446_255509742_255509283_255509063 23594435_255509283_251118732_255509283 23594435_255509283_251118732_961246133 23594435_255509283_251118732_251118690 23594435_255509283_251118732_251118692" />
	<route id="5" edges="23551585_255020992_981230183_255021015 23551585_255020992_981230183_255021016 23551585_255020992_981230183_255021017 23551585_255020992_981230183_251799078 23551585_255020992_981230183_251799077 23551585_255020992_981230183_251799076 84417615_981230183_981230139_981230183 84417579_981230139_251799073_981230139 84417579_981230139_251799073_251799075 84417579_981230139_251799073_251799074 23267296_251799073_251799072_251799073 23267297_251799072_251799071_251799072 35273343_251799071_251147526_251799071 35273343_251799071_251147526_251147525 35273344_251147526_253349423_251147526 35273344_251147526_253349423_251147527 35273344_251147526_253349423_251147528 35273344_253349423_251118753_253349423 35273344_253349423_251118753_251147530" />
	<route id="6" edges="23551585_255020992_981230183_255021015 23551585_255020992_981230183_255021016 23551585_255020992_981230183_255021017 23551585_255020992_981230183_251799078 23551585_255020992_981230183_251799077 23551585_255020992_981230183_251799076 84417615_981230183_981230139_981230183 84417579_981230139_251799073_981230139 84417579_981230139_251799073_251799075 84417579_981230139_251799073_251799074 23267296_251799073_251799072_251799073 23267297_251799072_251799071_251799072 35273343_251799071_251147526_251799071 35273343_251799071_251147526_251147525 35273344_251147526_253349423_251147526 35273344_251147526_253349423_251147527 35273344_251147526_253349423_251147528 23267280_253349423_1737161784_253349423 23267280_253349423_1737161784_1737161783 23267280_253349423_1737161784_251799054 23267280_253349423_1737161784_253349606 23267280_253349423_1737161784_251799053 23267280_253349423_1737161784_1737160683 23267280_253349423_1737161784_1737161788 23267280_253349423_1737161784_1737161791 23267280_253349423_1737161784_1737161797 23267280_253349423_1737161784_1737161798 23267280_253349423_1737161784_1737161796 23267280_253349423_1737161784_1737161790 23267280_253349423_1737161784_1737161787 23267280_253349423_1737161784_1737161786 23267280_253349423_1737161784_1737161785 161754186_1737161784_1018808049_1737161784 161754186_1737161784_1018808049_1737161782 87574288_1018808049_1018808053_1018808049 87574285_1018808053_1018808035_1018808053 23267288_1018808035_1018808047_1018808035 87574287_1018808047_1018808038_1018808047 87574289_1018808038_251147306_1018808038 87574289_1018808038_251147306_6435610502 87574289_1018808038_251147306_6435610503 87574289_1018808038_251147306_6435610505 87574289_1018808038_251147306_1018808051 87574289_1018808038_251147306_6435610498 87574289_1018808038_251147306_1018808022 87574289_1018808038_251147306_6435610495 87574289_1018808038_251147306_1018808032 87574289_1018808038_251147306_1018808048 87574289_1018808038_251147306_6435610494 87574289_1018808038_251147306_6435610493 87574289_1018808038_251147306_1018808021 87574289_1018808038_251147306_6435610488 87574289_1018808038_251147306_253350598 87574289_1018808038_251147306_6435610487 87574289_1018808038_251147306_251799064 87574289_1018808038_251147306_6435610486 87574289_1018808038_251147306_251799065 87574289_1018808038_251147306_253350600 87574289_1018808038_251147306_6435609382 87574289_1018808038_251147306_251799066 87574289_1018808038_251147306_6435609383 87574289_1018808038_251147306_253350601 87574289_1018808038_251147306_6435609384 87574289_1018808038_251147306_6435610499 123082845_251147306_360476996_251147306 123082845_251147306_360476996_1373732069 123082845_251147306_360476996_1373732071 123082845_251147306_360476996_251147308 123082845_251147306_360476996_1791505459 123082845_251147306_360476996_6435610510 123082845_251147306_360476996_360476990 123082845_251147306_360476996_6435609371 123082845_251147306_360476996_1791505461 32118955_360476996_360476821_360476996 32118955_360476996_360476821_1791505460 32118955_360476821_360476994_360476821 32118955_360476821_360476994_924406567 32118955_360476821_360476994_360476997 32118955_360476994_924406572_360476994 32118955_360476994_924406572_924406570 32118955_360476994_924406572_360476999 32118955_360476994_924406572_360476822 32118955_360476994_924406572_6435609368 32118955_924406572_360476823_924406572 32118955_924406572_360476823_6435609369 32118955_924406572_360476823_924406573 32118955_924406572_360476823_360476993 32118955_924406572_360476823_924406575 32118955_924406572_360476823_924406576 32118961_360476823_251118318_360476823 32118961_360476823_251118318_6435610509 32118961_360476823_251118318_1791505463 32118961_360476823_251118318_6435610507 32118960_251118318_251118322_251118318 32118960_251118318_251118322_6435610506 32118960_251118318_251118322_6435609374 32118960_251118318_251118322_251118319 32118960_251118318_251118322_6435609373 32118960_251118318_251118322_6435609372 32118960_251118318_251118322_251118320 32118960_251118318_251118322_251118321 32118960_251118318_251118322_6435609375 23267290_251118322_251147556_251118322 23267282_251147556_251118330_251147556 23267282_251147556_251118330_253349324 23267282_251147556_251118330_251118325 23267282_251147556_251118330_253349325 23267282_251147556_251118330_251118326 23267282_251147556_251118330_253349326 23267282_251147556_251118330_251118327 23267282_251147556_251118330_253349327 23267282_251147556_251118330_251118328 23267282_251147556_251118330_251118329 84417602_251118330_251118332_251118330 84417602_251118330_251118332_251118331 84417602_251118330_251118332_251832187 35273341_251118332_251118334_251118332 35273341_251118332_251118334_251118333 35273342_251118334_251118335_251118334 23267294_251118335_251118336_251118335 23267295_251118336_981230149_251118336 23267295_251118336_981230149_251118337 23267295_251118336_981230149_251118338 84417557_981230149_981230104_981230149 84417557_981230149_981230104_981230233 84417541_981230104_251118367_981230104 84417541_981230104_251118367_251118339 84417541_981230104_251118367_251118340 84417541_981230104_251118367_251118341 84417541_981230104_251118367_251118342 84417541_981230104_251118367_251118347 84417541_981230104_251118367_251118348 84417541_981230104_251118367_251118349 84417541_981230104_251118367_251118350 84417541_981230104_251118367_251118351 84417541_981230104_251118367_251118352 84417541_981230104_251118367_251118353 84417541_981230104_251118367_251118354 84417541_981230104_251118367_251118355 84417541_981230104_251118367_251118356 84417541_981230104_251118367_251118357 84417541_981230104_251118367_251118358 84417541_981230104_251118367_251118359 84417541_981230104_251118367_251118360 84417541_981230104_251118367_251118361 84417541_981230104_251118367_1018808023" />
	<route id="7" edges="35273345_413477864_413477863_413477864 35273346_413477863_924406572_413477863 35273346_413477863_924406572_360477000 35273346_413477863_924406572_6435609367 35273346_413477863_924406572_1791505464 32118955_924406572_360476823_924406572 32118955_924406572_360476823_6435609369 32118955_924406572_360476823_924406573 32118955_924406572_360476823_360476993 32118955_924406572_360476823_924406575 32118955_924406572_360476823_924406576 32118961_360476823_251118318_360476823 32118961_360476823_251118318_6435610509 32118961_360476823_251118318_1791505463 32118961_360476823_251118318_6435610507 32118961_251118318_961246166_251118318 32118961_251118318_961246166_6435610508 32118961_251118318_961246166_360476992 32118961_251118318_961246166_251118317 32118961_251118318_961246166_961246157 32118961_251118318_961246166_1373732070 32118961_251118318_961246166_6435610500 32118961_251118318_961246166_251147217 32118961_251118318_961246166_251147218 32118961_251118318_961246166_1373732067 32118961_251118318_961246166_6435609381 32118961_251118318_961246166_251147219 32118961_251118318_961246166_251147220 32118961_251118318_961246166_1373732059 32118961_961246166_1373732052_961246166 123082849_1373732052_1373732049_1373732052 123082850_1373732049_961246123_1373732049 123082850_1373732049_961246123_961246118 123082850_1373732049_961246123_961246181 123082850_1373732049_961246123_1791505451 123082850_1373732049_961246123_961246158 123082850_1373732049_961246123_1791505449 123082850_1373732049_961246123_961246120 123082850_1373732049_961246123_1791505447 123082850_1373732049_961246123_1791505439 123082850_1373732049_961246123_961246117 123082850_1373732049_961246123_961246127 82587878_961246123_924406553_961246123 82587878_961246123_924406553_1791505438 23594446_924406553_924406558_924406553 23594446_924406553_924406558_255542194 23594446_924406553_924406558_924406556 23594446_924406553_924406558_255542198 23594446_924406553_924406558_251118678 23594446_924406553_924406558_255542199 23594446_924406558_255509742_924406558 23594446_924406558_255509742_255509741 23594446_924406558_255509742_251118675 23594446_255509742_255509283_255509742 23594446_255509742_255509283_255509064 23594446_255509742_255509283_924406561 23594446_255509742_255509283_2450409966 23594446_255509742_255509283_255509063 23594435_255509283_251118732_255509283 23594435_255509283_251118732_961246133 23594435_255509283_251118732_251118690 23594435_255509283_251118732_251118692" />
	<route id="8" edges="35273345_413477864_413477863_413477864 35273346_413477863_924406572_413477863 35273346_413477863_924406572_360477000 35273346_413477863_924406572_6435609367 35273346_413477863_924406572_1791505464 32118955_924406572_360476823_924406572 32118955_924406572_360476823_6435609369 32118955_924406572_360476823_924406573 32118955_924406572_360476823_360476993 32118955_924406572_360476823_924406575 32118955_924406572_360476823_924406576 32118961_360476823_251118318_360476823 32118961_360476823_251118318_6435610509 32118961_360476823_251118318_1791505463 32118961_360476823_251118318_6435610507 32118961_251118318_961246166_251118318 32118961_251118318_961246166_6435610508 32118961_251118318_961246166_360476992 32118961_251118318_961246166_251118317 32118961_251118318_961246166_961246157 32118961_251118318_961246166_1373732070 32118961_251118318_961246166_6435610500 32118961_251118318_961246166_251147217 32118961_251118318_961246166_251147218 32118961_251118318_961246166_1373732067 32118961_251118318_961246166_6435609381 32118961_251118318_961246166_251147219 32118961_251118318_961246166_251147220 32118961_251118318_961246166_1373732059 32118961_961246166_1373732052_961246166 123082849_1373732052_1373732049_1373732052 123082850_1373732049_961246123_1373732049 123082850_1373732049_961246123_961246118 123082850_1373732049_961246123_961246181 123082850_1373732049_961246123_1791505451 123082850_1373732049_961246123_961246158 123082850_1373732049_961246123_1791505449 123082850_1373732049_961246123_961246120 123082850_1373732049_961246123_1791505447 123082850_1373732049_961246123_1791505439 123082850_1373732049_961246123_961246117 123082850_1373732049_961246123_961246127 82587878_961246123_924406553_961246123 82587878_961246123_924406553_1791505438 23594446_924406553_924406558_924406553 23594446_924406553_924406558_255542194 23594446_924406553_924406558_924406556 23594446_924406553_924406558_255542198 23594446_924406553_924406558_251118678 23594446_924406553_924406558_255542199 23594446_924406558_255509742_924406558 23594446_924406558_255509742_255509741 23594446_924406558_255509742_251118675 23594446_255509742_255509283_255509742 23594446_255509742_255509283_255509064 23594446_255509742_255509283_924406561 23594446_255509742_255509283_2450409966 23594446_255509742_255509283_255509063 23594435_255509283_251118732_255509283 23594435_255509283_251118732_961246133 23594435_255509283_251118732_251118690 23594435_255509283_251118732_251118692 23594435_255509283_251118732_251118699 23594435_255509283_251118732_1018661906 23594435_255509283_251118732_1018661888 23594435_255509283_251118732_251118713 23594435_255509283_251118732_1791505448 23594435_255509283_251118732_251118718 23594435_255509283_251118732_1791505450 23594435_255509283_251118732_251118721 23594435_255509283_251118732_251118723 23594435_255509283_251118732_251118731 23217980_251118732_1373732051_251118732 23217980_251118732_1373732051_1373732048 123082861_1373732051_1373732054_1373732051 123082883_1373732054_253350615_1373732054 123082883_1373732054_253350615_1373732055 123082883_1373732054_253350615_1373732056 123082883_1373732054_253350615_251118733 123082883_1373732054_253350615_1373732060 123082883_1373732054_253350615_6435610492 123082883_1373732054_253350615_253350614 123082883_1373732054_253350615_6435610491 123082883_1373732054_253350615_251118735 123082883_1373732054_253350615_6435610490 87574290_253350615_251118736_253350615 87574290_253350615_251118736_6435610489 23267287_251118736_251799067_251118736 23267287_251118736_251799067_253350218 23267287_251118736_251799067_253350219 23267287_251118736_251799067_251118738 23267287_251118736_251799067_253350220 23267287_251118736_251799067_6435610496 23267287_251118736_251799067_251118739 23267287_251118736_251799067_6435610497 23267287_251118736_251799067_253350221 23267287_251118736_251799067_6435610504 23267287_251118736_251799067_6435610501 23267289_251799067_251799068_251799067 23267290_251799068_251118322_251799068" />
</routes>