<connections>
	<connection from="123082849_1373732052_1373732049_1373732052" to="123082850_1373732049_961246123_1373732049" />
	<connection from="32118961_360476823_251118318_360476823" to="32118961_360476823_251118318_6435610509" />
	<connection from="32118961_360476823_251118318_6435610509" to="32118961_360476823_251118318_1791505463" />
	<connection from="32118961_360476823_251118318_1791505463" to="32118961_360476823_251118318_6435610507" />
	<connection from="32118961_360476823_251118318_6435610507" to="32118960_251118318_251118322_251118318" />
	<connection from="32118961_360476823_251118318_6435610507" to="32118961_251118318_961246166_251118318" />
	<connection from="87557106_1018661929_255509742_1018661929" to="87557106_1018661929_255509742_1791505402" />
	<connection from="87557106_1018661929_255509742_1791505402" to="87557106_1018661929_255509742_1791505409" />
	<connection from="87557106_1018661929_255509742_1791505409" to="87557106_1018661929_255509742_961246132" />
	<connection from="87557106_1018661929_255509742_961246132" to="23594446_255509742_255509283_255509742" />
	<connection from="23594446_251118682_924406553_251118682" to="23594446_251118682_924406553_251118680" />
	<connection from="23594446_251118682_924406553_251118680" to="23594446_924406553_924406558_924406553" />
	<connection from="87574290_253350615_251118736_253350615" to="87574290_253350615_251118736_6435610489" />
	<connection from="87574290_253350615_251118736_6435610489" to="23267287_251118736_251799067_251118736" />
	<connection from="23594446_255509742_255509283_255509742" to="23594446_255509742_255509283_255509064" />
	<connection from="23594446_255509742_255509283_255509064" to="23594446_255509742_255509283_924406561" />
	<connection from="23594446_255509742_255509283_924406561" to="23594446_255509742_255509283_2450409966" />
	<connection from="23594446_255509742_255509283_2450409966" to="23594446_255509742_255509283_255509063" />
	<connection from="23594446_255509742_255509283_255509063" to="23594435_255509283_251118732_255509283" />
	<connection from="23594446_255509742_255509283_255509063" to="23594446_255509283_251118682_255509283" />
	<connection from="35273344_253349423_251118753_253349423" to="35273344_253349423_251118753_251147530" />
	<connection from="35273344_253349423_251118753_251147530" to="35273344_251118753_981230186_251118753" />
	<connection from="23267288_1018808035_1018808047_1018808035" to="23267288_1018808047_1018808035_1018808047" />
	<connection from="23267288_1018808035_1018808047_1018808035" to="87574287_1018808047_1018808038_1018808047" />
	<connection from="35273345_413477864_413477863_413477864" to="35273346_413477863_924406572_413477863" />
	<connection from="87574288_1018808049_1018808053_1018808049" to="87574285_1018808053_1018808035_1018808053" />
	<connection from="35273346_413477863_924406572_413477863" to="35273346_413477863_924406572_360477000" />
	<connection from="35273346_413477863_924406572_360477000" to="35273346_413477863_924406572_6435609367" />
	<connection from="35273346_413477863_924406572_6435609367" to="35273346_413477863_924406572_1791505464" />
	<connection from="35273346_413477863_924406572_1791505464" to="32118955_924406572_360476823_924406572" />
	<connection from="84417602_251118330_251118332_251118330" to="84417602_251118330_251118332_251118331" />
	<connection from="84417602_251118330_251118332_251118331" to="84417602_251118330_251118332_251832187" />
	<connection from="84417602_251118330_251118332_251832187" to="35273341_251118332_251118334_251118332" />
	<connection from="82587878_961246123_924406553_961246123" to="82587878_961246123_924406553_1791505438" />
	<connection from="82587878_961246123_924406553_1791505438" to="23594446_924406553_924406558_924406553" />
	<connection from="123082845_1373732053_251147306_1373732053" to="123082845_1373732053_251147306_251147303" />
	<connection from="123082845_1373732053_251147306_251147303" to="123082845_1373732053_251147306_1373732058" />
	<connection from="123082845_1373732053_251147306_1373732058" to="123082845_1373732053_251147306_1373732061" />
	<connection from="123082845_1373732053_251147306_1373732061" to="123082845_1373732053_251147306_1373732063" />
	<connection from="123082845_1373732053_251147306_1373732063" to="123082845_1373732053_251147306_251147304" />
	<connection from="123082845_1373732053_251147306_251147304" to="123082845_1373732053_251147306_1373732065" />
	<connection from="123082845_1373732053_251147306_1373732065" to="123082845_1373732053_251147306_6435610485" />
	<connection from="123082845_1373732053_251147306_6435610485" to="123082845_251147306_360476996_251147306" />
	<connection from="23267295_251118336_981230149_251118336" to="23267295_251118336_981230149_251118337" />
	<connection from="23267295_251118336_981230149_251118337" to="23267295_251118336_981230149_251118338" />
	<connection from="23267295_251118336_981230149_251118338" to="84417557_981230149_981230104_981230149" />
	<connection from="23267289_251799067_251799068_251799067" to="23267290_251799068_251118322_251799068" />
	<connection from="23267294_251118335_251118336_251118335" to="23267295_251118336_981230149_251118336" />
	<connection from="23267285_251147488_1018808053_251147488" to="23267285_251147488_1018808053_7435945401" />
	<connection from="23267285_251147488_1018808053_7435945401" to="23267285_251147488_1018808053_251799058" />
	<connection from="23267285_251147488_1018808053_251799058" to="23267285_251147488_1018808053_251799059" />
	<connection from="23267285_251147488_1018808053_251799059" to="23267285_251147488_1018808053_251799060" />
	<connection from="23267285_251147488_1018808053_251799060" to="23267285_251147488_1018808053_251799061" />
	<connection from="23267285_251147488_1018808053_251799061" to="23267285_251147488_1018808053_251799062" />
	<connection from="23267285_251147488_1018808053_251799062" to="23267285_251147488_1018808053_251799063" />
	<connection from="23267285_251147488_1018808053_251799063" to="87574285_1018808053_1018808035_1018808053" />
	<connection from="23267287_251118736_251799067_251118736" to="23267287_251118736_251799067_253350218" />
	<connection from="23267287_251118736_251799067_253350218" to="23267287_251118736_251799067_253350219" />
	<connection from="23267287_251118736_251799067_253350219" to="23267287_251118736_251799067_251118738" />
	<connection from="23267287_251118736_251799067_251118738" to="23267287_251118736_251799067_253350220" />
	<connection from="23267287_251118736_251799067_253350220" to="23267287_251118736_251799067_6435610496" />
	<connection from="23267287_251118736_251799067_6435610496" to="23267287_251118736_251799067_251118739" />
	<connection from="23267287_251118736_251799067_251118739" to="23267287_251118736_251799067_6435610497" />
	<connection from="23267287_251118736_251799067_6435610497" to="23267287_251118736_251799067_253350221" />
	<connection from="23267287_251118736_251799067_253350221" to="23267287_251118736_251799067_6435610504" />
	<connection from="23267287_251118736_251799067_6435610504" to="23267287_251118736_251799067_6435610501" />
	<connection from="23267287_251118736_251799067_6435610501" to="23267289_251799067_251799068_251799067" />
	<connection from="84417541_981230104_251118367_981230104" to="84417541_981230104_251118367_251118339" />
	<connection from="84417541_981230104_251118367_251118339" to="84417541_981230104_251118367_251118340" />
	<connection from="84417541_981230104_251118367_251118340" to="84417541_981230104_251118367_251118341" />
	<connection from="84417541_981230104_251118367_251118341" to="84417541_981230104_251118367_251118342" />
	<connection from="84417541_981230104_251118367_251118342" to="84417541_981230104_251118367_251118347" />
	<connection from="84417541_981230104_251118367_251118347" to="84417541_981230104_251118367_251118348" />
	<connection from="84417541_981230104_251118367_251118348" to="84417541_981230104_251118367_251118349" />
	<connection from="84417541_981230104_251118367_251118349" to="84417541_981230104_251118367_251118350" />
	<connection from="84417541_981230104_251118367_251118350" to="84417541_981230104_251118367_251118351" />
	<connection from="84417541_981230104_251118367_251118351" to="84417541_981230104_251118367_251118352" />
	<connection from="84417541_981230104_251118367_251118352" to="84417541_981230104_251118367_251118353" />
	<connection from="84417541_981230104_251118367_251118353" to="84417541_981230104_251118367_251118354" />
	<connection from="84417541_981230104_251118367_251118354" to="84417541_981230104_251118367_251118355" />
	<connection from="84417541_981230104_251118367_251118355" to="84417541_981230104_251118367_251118356" />
	<connection from="84417541_981230104_251118367_251118356" to="84417541_981230104_251118367_251118357" />
	<connection from="84417541_981230104_251118367_251118357" to="84417541_981230104_251118367_251118358" />
	<connection from="84417541_981230104_251118367_251118358" to="84417541_981230104_251118367_251118359" />
	<connection from="84417541_981230104_251118367_251118359" to="84417541_981230104_251118367_251118360" />
	<connection from="84417541_981230104_251118367_251118360" to="84417541_981230104_251118367_251118361" />
	<connection from="84417541_981230104_251118367_251118361" to="84417541_981230104_251118367_1018808023" />
	<connection from="87574287_1018808047_1018808038_1018808047" to="87574289_1018808038_251147306_1018808038" />
	<connection from="32118955_924406572_360476823_924406572" to="32118955_924406572_360476823_6435609369" />
	<connection from="32118955_924406572_360476823_6435609369" to="32118955_924406572_360476823_924406573" />
	<connection from="32118955_924406572_360476823_924406573" to="32118955_924406572_360476823_360476993" />
	<connection from="32118955_924406572_360476823_360476993" to="32118955_924406572_360476823_924406575" />
	<connection from="32118955_924406572_360476823_924406575" to="32118955_924406572_360476823_924406576" />
	<connection from="32118955_924406572_360476823_924406576" to="32118961_360476823_251118318_360476823" />
	<connection from="32118955_924406572_360476823_924406576" to="32118955_360476823_360476996_360476823" />
	<connection from="23217980_251118732_1373732051_251118732" to="23217980_251118732_1373732051_1373732048" />
	<connection from="23217980_251118732_1373732051_1373732048" to="123082861_1373732051_1373732054_1373732051" />
	<connection from="87574289_1018808038_251147306_1018808038" to="87574289_1018808038_251147306_6435610502" />
	<connection from="87574289_1018808038_251147306_6435610502" to="87574289_1018808038_251147306_6435610503" />
	<connection from="87574289_1018808038_251147306_6435610503" to="87574289_1018808038_251147306_6435610505" />
	<connection from="87574289_1018808038_251147306_6435610505" to="87574289_1018808038_251147306_1018808051" />
	<connection from="87574289_1018808038_251147306_1018808051" to="87574289_1018808038_251147306_6435610498" />
	<connection from="87574289_1018808038_251147306_6435610498" to="87574289_1018808038_251147306_1018808022" />
	<connection from="87574289_1018808038_251147306_1018808022" to="87574289_1018808038_251147306_6435610495" />
	<connection from="87574289_1018808038_251147306_6435610495" to="87574289_1018808038_251147306_1018808032" />
	<connection from="87574289_1018808038_251147306_1018808032" to="87574289_1018808038_251147306_1018808048" />
	<connection from="87574289_1018808038_251147306_1018808048" to="87574289_1018808038_251147306_6435610494" />
	<connection from="87574289_1018808038_251147306_6435610494" to="87574289_1018808038_251147306_6435610493" />
	<connection from="87574289_1018808038_251147306_6435610493" to="87574289_1018808038_251147306_1018808021" />
	<connection from="87574289_1018808038_251147306_1018808021" to="87574289_1018808038_251147306_6435610488" />
	<connection from="87574289_1018808038_251147306_6435610488" to="87574289_1018808038_251147306_253350598" />
	<connection from="87574289_1018808038_251147306_253350598" to="87574289_1018808038_251147306_6435610487" />
	<connection from="87574289_1018808038_251147306_6435610487" to="87574289_1018808038_251147306_251799064" />
	<connection from="87574289_1018808038_251147306_251799064" to="87574289_1018808038_251147306_6435610486" />
	<connection from="87574289_1018808038_251147306_6435610486" to="87574289_1018808038_251147306_251799065" />
	<connection from="87574289_1018808038_251147306_251799065" to="87574289_1018808038_251147306_253350600" />
	<connection from="87574289_1018808038_251147306_253350600" to="87574289_1018808038_251147306_6435609382" />
	<connection from="87574289_1018808038_251147306_6435609382" to="87574289_1018808038_251147306_251799066" />
	<connection from="87574289_1018808038_251147306_251799066" to="87574289_1018808038_251147306_6435609383" />
	<connection from="87574289_1018808038_251147306_6435609383" to="87574289_1018808038_251147306_253350601" />
	<connection from="87574289_1018808038_251147306_253350601" to="87574289_1018808038_251147306_6435609384" />
	<connection from="87574289_1018808038_251147306_6435609384" to="87574289_1018808038_251147306_6435610499" />
	<connection from="87574289_1018808038_251147306_6435610499" to="123082845_251147306_360476996_251147306" />
	<connection from="23267284_251118745_251118753_251118745" to="23267284_251118745_251118753_253348874" />
	<connection from="23267284_251118745_251118753_253348874" to="23267284_251118745_251118753_251118746" />
	<connection from="23267284_251118745_251118753_251118746" to="23267284_251118745_251118753_253348875" />
	<connection from="23267284_251118745_251118753_253348875" to="23267284_251118745_251118753_251118747" />
	<connection from="23267284_251118745_251118753_251118747" to="23267284_251118745_251118753_1737161792" />
	<connection from="23267284_251118745_251118753_1737161792" to="23267284_251118745_251118753_253348876" />
	<connection from="23267284_251118745_251118753_253348876" to="23267284_251118745_251118753_1737161794" />
	<connection from="23267284_251118745_251118753_1737161794" to="23267284_251118745_251118753_251118748" />
	<connection from="23267284_251118745_251118753_251118748" to="23267284_251118745_251118753_253348877" />
	<connection from="23267284_251118745_251118753_253348877" to="23267284_251118745_251118753_251118749" />
	<connection from="23267284_251118745_251118753_251118749" to="23267284_251118745_251118753_253348667" />
	<connection from="23267284_251118745_251118753_253348667" to="23267284_251118745_251118753_251118750" />
	<connection from="23267284_251118745_251118753_251118750" to="23267284_251118745_251118753_253348668" />
	<connection from="23267284_251118745_251118753_253348668" to="23267284_251118745_251118753_251118751" />
	<connection from="23267284_251118745_251118753_251118751" to="23267284_251118745_251118753_253348669" />
	<connection from="23267284_251118745_251118753_253348669" to="35273344_251118753_981230186_251118753" />
	<connection from="23267290_251799068_251118322_251799068" to="23267290_251118322_251147556_251118322" />
	<connection from="87574285_1018808035_1018808053_1018808035" to="87574285_1018808053_1018808035_1018808053" />
	<connection from="23267297_251799072_251799071_251799072" to="35273343_251799071_251147526_251799071" />
	<connection from="23267280_253349423_1737161784_253349423" to="23267280_253349423_1737161784_1737161783" />
	<connection from="23267280_253349423_1737161784_1737161783" to="23267280_253349423_1737161784_251799054" />
	<connection from="23267280_253349423_1737161784_251799054" to="23267280_253349423_1737161784_253349606" />
	<connection from="23267280_253349423_1737161784_253349606" to="23267280_253349423_1737161784_251799053" />
	<connection from="23267280_253349423_1737161784_251799053" to="23267280_253349423_1737161784_1737160683" />
	<connection from="23267280_253349423_1737161784_1737160683" to="23267280_253349423_1737161784_1737161788" />
	<connection from="23267280_253349423_1737161784_1737161788" to="23267280_253349423_1737161784_1737161791" />
	<connection from="23267280_253349423_1737161784_1737161791" to="23267280_253349423_1737161784_1737161797" />
	<connection from="23267280_253349423_1737161784_1737161797" to="23267280_253349423_1737161784_1737161798" />
	<connection from="23267280_253349423_1737161784_1737161798" to="23267280_253349423_1737161784_1737161796" />
	<connection from="23267280_253349423_1737161784_1737161796" to="23267280_253349423_1737161784_1737161790" />
	<connection from="23267280_253349423_1737161784_1737161790" to="23267280_253349423_1737161784_1737161787" />
	<connection from="23267280_253349423_1737161784_1737161787" to="23267280_253349423_1737161784_1737161786" />
	<connection from="23267280_253349423_1737161784_1737161786" to="23267280_253349423_1737161784_1737161785" />
	<connection from="23267280_253349423_1737161784_1737161785" to="161754186_1737161784_1018808049_1737161784" />
	<connection from="23267288_1018808047_1018808035_1018808047" to="23267288_1018808035_1018808047_1018808035" />
	<connection from="23267288_1018808047_1018808035_1018808047" to="23267291_1018808035_961246166_1018808035" />
	<connection from="23267288_1018808047_1018808035_1018808047" to="87574285_1018808035_1018808053_1018808035" />
	<connection from="123082845_251147306_360476996_251147306" to="123082845_251147306_360476996_1373732069" />
	<connection from="123082845_251147306_360476996_1373732069" to="123082845_251147306_360476996_1373732071" />
	<connection from="123082845_251147306_360476996_1373732071" to="123082845_251147306_360476996_251147308" />
	<connection from="123082845_251147306_360476996_251147308" to="123082845_251147306_360476996_1791505459" />
	<connection from="123082845_251147306_360476996_1791505459" to="123082845_251147306_360476996_6435610510" />
	<connection from="123082845_251147306_360476996_6435610510" to="123082845_251147306_360476996_360476990" />
	<connection from="123082845_251147306_360476996_360476990" to="123082845_251147306_360476996_6435609371" />
	<connection from="123082845_251147306_360476996_6435609371" to="123082845_251147306_360476996_1791505461" />
	<connection from="123082845_251147306_360476996_1791505461" to="32118955_360476996_360476821_360476996" />
	<connection from="32118955_360476823_360476996_360476823" to="32118955_360476823_360476996_924406578" />
	<connection from="32118955_360476823_360476996_924406578" to="32118955_360476823_360476996_251147441" />
	<connection from="32118955_360476823_360476996_251147441" to="32118955_360476823_360476996_360476995" />
	<connection from="32118955_360476823_360476996_360476995" to="32118955_360476823_360476996_6435609370" />
	<connection from="32118955_360476823_360476996_6435609370" to="32118955_360476996_360476821_360476996" />
	<connection from="32118961_961246166_1373732052_961246166" to="123082849_1373732052_1373732049_1373732052" />
	<connection from="35273348_251118311_360476839_251118311" to="35273348_251118311_360476839_251118309" />
	<connection from="35273348_251118311_360476839_251118309" to="35273348_251118311_360476839_251118308" />
	<connection from="35273348_251118311_360476839_251118308" to="35273348_251118311_360476839_1791505465" />
	<connection from="35273348_251118311_360476839_1791505465" to="35273348_251118311_360476839_1791505467" />
	<connection from="35273348_251118311_360476839_1791505467" to="35273348_251118311_360476839_360476824" />
	<connection from="35273348_251118311_360476839_360476824" to="35273348_251118311_360476839_1791505469" />
	<connection from="35273348_251118311_360476839_1791505469" to="35273348_251118311_360476839_1791505471" />
	<connection from="35273348_251118311_360476839_1791505471" to="35273348_251118311_360476839_360476836" />
	<connection from="35273348_251118311_360476839_360476836" to="35273348_251118311_360476839_1048813215" />
	<connection from="35273348_251118311_360476839_1048813215" to="35273348_251118311_360476839_360476837" />
	<connection from="35273348_251118311_360476839_360476837" to="35273348_251118311_360476839_1048811715" />
	<connection from="35273348_251118311_360476839_1048811715" to="35273348_251118311_360476839_1048813377" />
	<connection from="35273348_251118311_360476839_1048813377" to="35273348_251118311_360476839_360476838" />
	<connection from="23267296_251799073_251799072_251799073" to="23267297_251799072_251799071_251799072" />
	<connection from="23267290_251118322_251147556_251118322" to="23267282_251147556_251118330_251147556" />
	<connection from="23267290_251118322_251147556_251118322" to="23267290_251147556_251118744_251147556" />
	<connection from="84417579_981230139_251799073_981230139" to="84417579_981230139_251799073_251799075" />
	<connection from="84417579_981230139_251799073_251799075" to="84417579_981230139_251799073_251799074" />
	<connection from="84417579_981230139_251799073_251799074" to="23267296_251799073_251799072_251799073" />
	<connection from="23267282_251147556_251118330_251147556" to="23267282_251147556_251118330_253349324" />
	<connection from="23267282_251147556_251118330_253349324" to="23267282_251147556_251118330_251118325" />
	<connection from="23267282_251147556_251118330_251118325" to="23267282_251147556_251118330_253349325" />
	<connection from="23267282_251147556_251118330_253349325" to="23267282_251147556_251118330_251118326" />
	<connection from="23267282_251147556_251118330_251118326" to="23267282_251147556_251118330_253349326" />
	<connection from="23267282_251147556_251118330_253349326" to="23267282_251147556_251118330_251118327" />
	<connection from="23267282_251147556_251118330_251118327" to="23267282_251147556_251118330_253349327" />
	<connection from="23267282_251147556_251118330_253349327" to="23267282_251147556_251118330_251118328" />
	<connection from="23267282_251147556_251118330_251118328" to="23267282_251147556_251118330_251118329" />
	<connection from="23267282_251147556_251118330_251118329" to="84417602_251118330_251118332_251118330" />
	<connection from="23594435_255509283_251118732_255509283" to="23594435_255509283_251118732_961246133" />
	<connection from="23594435_255509283_251118732_961246133" to="23594435_255509283_251118732_251118690" />
	<connection from="23594435_255509283_251118732_251118690" to="23594435_255509283_251118732_251118692" />
	<connection from="23594435_255509283_251118732_251118692" to="23594435_255509283_251118732_251118699" />
	<connection from="23594435_255509283_251118732_251118699" to="23594435_255509283_251118732_1018661906" />
	<connection from="23594435_255509283_251118732_1018661906" to="23594435_255509283_251118732_1018661888" />
	<connection from="23594435_255509283_251118732_1018661888" to="23594435_255509283_251118732_251118713" />
	<connection from="23594435_255509283_251118732_251118713" to="23594435_255509283_251118732_1791505448" />
	<connection from="23594435_255509283_251118732_1791505448" to="23594435_255509283_251118732_251118718" />
	<connection from="23594435_255509283_251118732_251118718" to="23594435_255509283_251118732_1791505450" />
	<connection from="23594435_255509283_251118732_1791505450" to="23594435_255509283_251118732_251118721" />
	<connection from="23594435_255509283_251118732_251118721" to="23594435_255509283_251118732_251118723" />
	<connection from="23594435_255509283_251118732_251118723" to="23594435_255509283_251118732_251118731" />
	<connection from="23594435_255509283_251118732_251118731" to="23594435_251118732_1373732050_251118732" />
	<connection from="23594435_255509283_251118732_251118731" to="23217980_251118732_1373732051_251118732" />
	<connection from="23551585_255020992_981230183_255020992" to="23551585_255020992_981230183_255021000" />
	<connection from="23551585_255020992_981230183_255021000" to="23551585_255020992_981230183_255021001" />
	<connection from="23551585_255020992_981230183_255021001" to="23551585_255020992_981230183_255021002" />
	<connection from="23551585_255020992_981230183_255021002" to="23551585_255020992_981230183_255021003" />
	<connection from="23551585_255020992_981230183_255021003" to="23551585_255020992_981230183_255021004" />
	<connection from="23551585_255020992_981230183_255021004" to="23551585_255020992_981230183_255021005" />
	<connection from="23551585_255020992_981230183_255021005" to="23551585_255020992_981230183_255021006" />
	<connection from="23551585_255020992_981230183_255021006" to="23551585_255020992_981230183_255021007" />
	<connection from="23551585_255020992_981230183_255021007" to="23551585_255020992_981230183_255021008" />
	<connection from="23551585_255020992_981230183_255021008" to="23551585_255020992_981230183_255021009" />
	<connection from="23551585_255020992_981230183_255021009" to="23551585_255020992_981230183_255021010" />
	<connection from="23551585_255020992_981230183_255021010" to="23551585_255020992_981230183_255021011" />
	<connection from="23551585_255020992_981230183_255021011" to="23551585_255020992_981230183_255021013" />
	<connection from="23551585_255020992_981230183_255021013" to="23551585_255020992_981230183_255021015" />
	<connection from="23551585_255020992_981230183_255021015" to="23551585_255020992_981230183_255021016" />
	<connection from="23551585_255020992_981230183_255021016" to="23551585_255020992_981230183_255021017" />
	<connection from="23551585_255020992_981230183_255021017" to="23551585_255020992_981230183_251799078" />
	<connection from="23551585_255020992_981230183_251799078" to="23551585_255020992_981230183_251799077" />
	<connection from="23551585_255020992_981230183_251799077" to="23551585_255020992_981230183_251799076" />
	<connection from="23551585_255020992_981230183_251799076" to="84417615_981230183_981230139_981230183" />
	<connection from="23267291_1018808035_961246166_1018808035" to="23267291_1018808035_961246166_360476989" />
	<connection from="23267291_1018808035_961246166_360476989" to="23267291_1018808035_961246166_6435609376" />
	<connection from="23267291_1018808035_961246166_6435609376" to="23267291_1018808035_961246166_6435609377" />
	<connection from="23267291_1018808035_961246166_6435609377" to="23267291_1018808035_961246166_251799069" />
	<connection from="23267291_1018808035_961246166_251799069" to="23267291_1018808035_961246166_6435609379" />
	<connection from="23267291_1018808035_961246166_6435609379" to="23267291_1018808035_961246166_1373732072" />
	<connection from="23267291_1018808035_961246166_1373732072" to="23267291_1018808035_961246166_6435609378" />
	<connection from="23267291_1018808035_961246166_6435609378" to="23267291_1018808035_961246166_251799070" />
	<connection from="23267291_1018808035_961246166_251799070" to="23267291_1018808035_961246166_6435609380" />
	<connection from="23267291_1018808035_961246166_6435609380" to="23267291_1018808035_961246166_1373732068" />
	<connection from="23267291_1018808035_961246166_1373732068" to="23267291_1018808035_961246166_1373732066" />
	<connection from="23267291_1018808035_961246166_1373732066" to="23267291_1018808035_961246166_1373732064" />
	<connection from="23267291_1018808035_961246166_1373732064" to="23267291_1018808035_961246166_1373732062" />
	<connection from="23267291_1018808035_961246166_1373732062" to="23267291_1018808035_961246166_1373732057" />
	<connection from="23267291_1018808035_961246166_1373732057" to="32118961_961246166_1373732052_961246166" />
	<connection from="84417602_251147488_251118330_251147488" to="84417602_251147488_251118330_982335859" />
	<connection from="84417602_251147488_251118330_982335859" to="84417602_251147488_251118330_982335848" />
	<connection from="84417602_251147488_251118330_982335848" to="84417602_251147488_251118330_251147489" />
	<connection from="84417602_251147488_251118330_251147489" to="84417602_251147488_251118330_251147490" />
	<connection from="84417602_251147488_251118330_251147490" to="84417602_251147488_251118330_251147491" />
	<connection from="84417602_251147488_251118330_251147491" to="84417602_251147488_251118330_251799052" />
	<connection from="84417602_251147488_251118330_251799052" to="84417602_251118330_251118332_251118330" />
	<connection from="23594446_924406558_255509742_924406558" to="23594446_924406558_255509742_255509741" />
	<connection from="23594446_924406558_255509742_255509741" to="23594446_924406558_255509742_251118675" />
	<connection from="23594446_924406558_255509742_251118675" to="23594446_255509742_255509283_255509742" />
	<connection from="23594446_924406553_924406558_924406553" to="23594446_924406553_924406558_255542194" />
	<connection from="23594446_924406553_924406558_255542194" to="23594446_924406553_924406558_924406556" />
	<connection from="23594446_924406553_924406558_924406556" to="23594446_924406553_924406558_255542198" />
	<connection from="23594446_924406553_924406558_255542198" to="23594446_924406553_924406558_251118678" />
	<connection from="23594446_924406553_924406558_251118678" to="23594446_924406553_924406558_255542199" />
	<connection from="23594446_924406553_924406558_255542199" to="23594446_924406558_255509742_924406558" />
	<connection from="23594446_924406553_924406558_255542199" to="82587879_924406558_924406540_924406558" />
	<connection from="32118960_251118318_251118322_251118318" to="32118960_251118318_251118322_6435610506" />
	<connection from="32118960_251118318_251118322_6435610506" to="32118960_251118318_251118322_6435609374" />
	<connection from="32118960_251118318_251118322_6435609374" to="32118960_251118318_251118322_251118319" />
	<connection from="32118960_251118318_251118322_251118319" to="32118960_251118318_251118322_6435609373" />
	<connection from="32118960_251118318_251118322_6435609373" to="32118960_251118318_251118322_6435609372" />
	<connection from="32118960_251118318_251118322_6435609372" to="32118960_251118318_251118322_251118320" />
	<connection from="32118960_251118318_251118322_251118320" to="32118960_251118318_251118322_251118321" />