<edges>
	<edge id="77414953_3165874998_898091977_3165874998" from="3165874998" to="898091977" numLanes="1" speed="16.67" />
	<edge id="77414929_898091146_2163156799_898091146" from="898091146" to="898089801" numLanes="1" speed="13.89" />
	<edge id="77414929_898091146_2163156799_898089801" from="898089801" to="898090401" numLanes="1" speed="13.89" />
	<edge id="77414929_898091146_2163156799_898090401" from="898090401" to="898090088" numLanes="1" speed="13.89" />
	<edge id="77414929_898091146_2163156799_898090088" from="898090088" to="898090633" numLanes="1" speed="13.89" />
	<edge id="77414929_898091146_2163156799_898090633" from="898090633" to="3165874997" numLanes="1" speed="13.89" />
	<edge id="77414929_898091146_2163156799_3165874997" from="3165874997" to="898091077" numLanes="1" speed="13.89" />
	<edge id="77414929_898091146_2163156799_898091077" from="898091077" to="898090335" numLanes="1" speed="13.89" />
	<edge id="77414929_898091146_2163156799_898090335" from="898090335" to="898091925" numLanes="1" speed="13.89" />
	<edge id="77414929_898091146_2163156799_898091925" from="898091925" to="898091553" numLanes="1" speed="13.89" />
	<edge id="77414929_898091146_2163156799_898091553" from="898091553" to="898091753" numLanes="1" speed="13.89" />
	<edge id="77414929_898091146_2163156799_898091753" from="898091753" to="898089898" numLanes="1" speed="13.89" />
	<edge id="77414929_898091146_2163156799_898089898" from="898089898" to="898090943" numLanes="1" speed="13.89" />
	<edge id="77414929_898091146_2163156799_898090943" from="898090943" to="898090197" numLanes="1" speed="13.89" />
	<edge id="77414929_898091146_2163156799_898090197" from="898090197" to="898090729" numLanes="1" speed="13.89" />
	<edge id="77414929_898091146_2163156799_898090729" from="898090729" to="898089828" numLanes="1" speed="13.89" />
	<edge id="77414929_898091146_2163156799_898089828" from="898089828" to="898090138" numLanes="1" speed="13.89" />
	<edge id="77414929_898091146_2163156799_898090138" from="898090138" to="898090664" numLanes="1" speed="13.89" />
	<edge id="77414929_898091146_2163156799_898090664" from="898090664" to="898091117" numLanes="1" speed="13.89" />
	<edge id="77414929_898091146_2163156799_898091117" from="898091117" to="898090856" numLanes="1" speed="13.89" />
	<edge id="77414929_898091146_2163156799_898090856" from="898090856" to="898091340" numLanes="1" speed="13.89" />
	<edge id="77414929_898091146_2163156799_898091340" from="898091340" to="898090615" numLanes="1" speed="13.89" />
	<edge id="77414929_898091146_2163156799_898090615" from="898090615" to="898091047" numLanes="1" speed="13.89" />
	<edge id="77414929_898091146_2163156799_898091047" from="898091047" to="898091268" numLanes="1" speed="13.89" />
	<edge id="77414929_898091146_2163156799_898091268" from="898091268" to="898091902" numLanes="1" speed="13.89" />
	<edge id="77414929_898091146_2163156799_898091902" from="898091902" to="898090036" numLanes="1" speed="13.89" />
	<edge id="77414929_898091146_2163156799_898090036" from="898090036" to="898091516" numLanes="1" speed="13.89" />
	<edge id="77414929_898091146_2163156799_898091516" from="898091516" to="898092094" numLanes="1" speed="13.89" />
	<edge id="77414929_898091146_2163156799_898092094" from="898092094" to="898089860" numLanes="1" speed="13.89" />
	<edge id="77414929_898091146_2163156799_898089860" from="898089860" to="898090495" numLanes="1" speed="13.89" />
	<edge id="77414929_898091146_2163156799_898090495" from="898090495" to="898090930" numLanes="1" speed="13.89" />
	<edge id="77414929_898091146_2163156799_898090930" from="898090930" to="898090170" numLanes="1" speed="13.89" />
	<edge id="77414929_898091146_2163156799_898090170" from="898090170" to="2242429067" numLanes="1" speed="13.89" />
	<edge id="77414929_898091146_2163156799_2242429067" from="2242429067" to="898090706" numLanes="1" speed="13.89" />
	<edge id="77414929_898091146_2163156799_898090706" from="898090706" to="898090410" numLanes="1" speed="13.89" />
	<edge id="77414929_898091146_2163156799_898090410" from="898090410" to="898090892" numLanes="1" speed="13.89" />
	<edge id="77414929_898091146_2163156799_898090892" from="898090892" to="898091374" numLanes="1" speed="13.89" />
	<edge id="77414929_898091146_2163156799_898091374" from="898091374" to="898091985" numLanes="1" speed="13.89" />
	<edge id="77414929_898091146_2163156799_898091985" from="898091985" to="898090643" numLanes="1" speed="13.89" />
	<edge id="77414929_898091146_2163156799_898090643" from="898090643" to="898091306" numLanes="1" speed="13.89" />
	<edge id="77414929_898091146_2163156799_898091306" from="898091306" to="898091930" numLanes="1" speed="13.89" />
	<edge id="77414929_898091146_2163156799_898091930" from="898091930" to="898090093" numLanes="1" speed="13.89" />
	<edge id="77414929_898091146_2163156799_898090093" from="898090093" to="898091026" numLanes="1" speed="13.89" />
	<edge id="77414929_898091146_2163156799_898091026" from="898091026" to="898091565" numLanes="1" speed="13.89" />
	<edge id="77414929_898091146_2163156799_898091565" from="898091565" to="898092124" numLanes="1" speed="13.89" />
	<edge id="77414929_898091146_2163156799_898092124" from="898092124" to="898091248" numLanes="1" speed="13.89" />
	<edge id="77414929_898091146_2163156799_898091248" from="898091248" to="898089996" numLanes="1" speed="13.89" />
	<edge id="77414929_898091146_2163156799_898089996" from="898089996" to="898090587" numLanes="1" speed="13.89" />
	<edge id="77414929_898091146_2163156799_898090587" from="898090587" to="898092066" numLanes="1" speed="13.89" />
	<edge id="77414929_898091146_2163156799_898092066" from="898092066" to="898091067" numLanes="1" speed="13.89" />
	<edge id="77414929_898091146_2163156799_898091067" from="898091067" to="898090379" numLanes="1" speed="13.89" />
	<edge id="77414929_898091146_2163156799_898090379" from="898090379" to="898091908" numLanes="1" speed="13.89" />
	<edge id="77414929_898091146_2163156799_898091908" from="898091908" to="898090053" numLanes="1" speed="13.89" />
	<edge id="77414929_898091146_2163156799_898090053" from="898090053" to="898092105" numLanes="1" speed="13.89" />
	<edge id="77414929_898091146_2163156799_898092105" from="898092105" to="898091842" numLanes="1" speed="13.89" />
	<edge id="77414929_898091146_2163156799_898091842" from="898091842" to="898090561" numLanes="1" speed="13.89" />
	<edge id="77414929_898091146_2163156799_898090561" from="898090561" to="898092047" numLanes="1" speed="13.89" />
	<edge id="77414929_898091146_2163156799_898092047" from="898092047" to="898090497" numLanes="1" speed="13.89" />
	<edge id="77414929_898091146_2163156799_898090497" from="898090497" to="898091719" numLanes="1" speed="13.89" />
	<edge id="77414929_898091146_2163156799_898091719" from="898091719" to="898090894" numLanes="1" speed="13.89" />
	<edge id="77414929_898091146_2163156799_898090894" from="898090894" to="898092138" numLanes="1" speed="13.89" />
	<edge id="77414929_898091146_2163156799_898092138" from="898092138" to="898090354" numLanes="1" speed="13.89" />
	<edge id="77414929_898091146_2163156799_898090354" from="898090354" to="898090016" numLanes="1" speed="13.89" />
	<edge id="77414929_898091146_2163156799_898090016" from="898090016" to="898091035" numLanes="1" speed="13.89" />
	<edge id="77414929_898091146_2163156799_898091035" from="898091035" to="898090276" numLanes="1" speed="13.89" />
	<edge id="77414929_898091146_2163156799_898090276" from="898090276" to="898091259" numLanes="1" speed="13.89" />
	<edge id="77414929_898091146_2163156799_898091259" from="898091259" to="898091497" numLanes="1" speed="13.89" />
	<edge id="77414929_898091146_2163156799_898091497" from="898091497" to="898090212" numLanes="1" speed="13.89" />
	<edge id="77414929_898091146_2163156799_898090212" from="898090212" to="898091778" numLanes="1" speed="13.89" />
	<edge id="77414929_898091146_2163156799_898091778" from="898091778" to="898090917" numLanes="1" speed="13.89" />
	<edge id="77414929_898091146_2163156799_898090917" from="898090917" to="898091425" numLanes="1" speed="13.89" />
	<edge id="77414929_898091146_2163156799_898091425" from="898091425" to="898092023" numLanes="1" speed="13.89" />
	<edge id="77414929_898091146_2163156799_898092023" from="898092023" to="3165881667" numLanes="1" speed="13.89" />
	<edge id="77414929_898091146_2163156799_3165881667" from="3165881667" to="898091679" numLanes="1" speed="13.89" />
	<edge id="77414929_898091146_2163156799_898091679" from="898091679" to="3165881668" numLanes="1" speed="13.89" />
	<edge id="77414929_898091146_2163156799_3165881668" from="3165881668" to="898089842" numLanes="1" speed="13.89" />
	<edge id="77414929_898091146_2163156799_898089842" from="898089842" to="898090874" numLanes="1" speed="13.89" />
	<edge id="77414929_898091146_2163156799_898090874" from="898090874" to="6071023512" numLanes="1" speed="13.89" />
	<edge id="77414929_898091146_2163156799_6071023512" from="6071023512" to="3165881669" numLanes="1" speed="13.89" />
	<edge id="77414929_898091146_2163156799_3165881669" from="3165881669" to="898090153" numLanes="1" speed="13.89" />
	<edge id="77414929_898091146_2163156799_898090153" from="898090153" to="3165881670" numLanes="1" speed="13.89" />
	<edge id="77414929_898091146_2163156799_3165881670" from="3165881670" to="898092112" numLanes="1" speed="13.89" />
	<edge id="77414929_898091146_2163156799_898092112" from="898092112" to="898090828" numLanes="1" speed="13.89" />
	<edge id="77414929_898091146_2163156799_898090828" from="898090828" to="3165881671" numLanes="1" speed="13.89" />
	<edge id="77414929_898091146_2163156799_3165881671" from="3165881671" to="898091290" numLanes="1" speed="13.89" />
	<edge id="77414929_898091146_2163156799_898091290" from="898091290" to="3165881672" numLanes="1" speed="13.89" />
	<edge id="77414929_898091146_2163156799_3165881672" from="3165881672" to="898089975" numLanes="1" speed="13.89" />
	<edge id="77414929_898091146_2163156799_898089975" from="898089975" to="898090573" numLanes="1" speed="13.89" />
	<edge id="77414929_898091146_2163156799_898090573" from="898090573" to="898091852" numLanes="1" speed="13.89" />
	<edge id="77414929_898091146_2163156799_898091852" from="898091852" to="898090508" numLanes="1" speed="13.89" />
	<edge id="77414929_898091146_2163156799_898090508" from="898090508" to="898090936" numLanes="1" speed="13.89" />
	<edge id="77414929_898091146_2163156799_898090936" from="898090936" to="2163156643" numLanes="1" speed="13.89" />
	<edge id="77414929_898091146_2163156799_2163156643" from="2163156643" to="898092051" numLanes="1" speed="13.89" />
	<edge id="77414929_898091146_2163156799_898092051" from="898092051" to="898091389" numLanes="1" speed="13.89" />
	<edge id="77414929_898091146_2163156799_898091389" from="898091389" to="2163156698" numLanes="1" speed="13.89" />
	<edge id="77414929_898091146_2163156799_2163156698" from="2163156698" to="2163156641" numLanes="1" speed="13.89" />
	<edge id="77414929_898091146_2163156799_2163156641" from="2163156641" to="2163156642" numLanes="1" speed="13.89" />
	<edge id="77414929_898091146_2163156799_2163156642" from="2163156642" to="2163156799" numLanes="1" speed="13.89" />
	<edge id="77414953_898091977_3165874998_898091977" from="898091977" to="3165874998" numLanes="1" speed="16.67" />
	<edge id="77414953_3165874998_1724274080_3165874998" from="3165874998" to="3165874999" numLanes="1" speed="16.67" />
	<edge id="77414953_3165874998_1724274080_3165874999" from="3165874999" to="3165875000" numLanes="1" speed="16.67" />
	<edge id="77414953_3165874998_1724274080_3165875000" from="3165875000" to="2242428472" numLanes="1" speed="16.67" />
	<edge id="77414953_3165874998_1724274080_2242428472" from="2242428472" to="911175126" numLanes="1" speed="16.67" />
	<edge id="77414953_3165874998_1724274080_911175126" from="911175126" to="3165875001" numLanes="1" speed="16.67" />
	<edge id="77414953_3165874998_1724274080_3165875001" from="3165875001" to="3165875002" numLanes="1" speed="16.67" />
	<edge id="77414953_3165874998_1724274080_3165875002" from="3165875002" to="911175154" numLanes="1" speed="16.67" />
	<edge id="77414953_3165874998_1724274080_911175154" from="911175154" to="3165875003" numLanes="1" speed="16.67" />
	<edge id="77414953_3165874998_1724274080_3165875003" from="3165875003" to="3165875004" numLanes="1" speed="16.67" />
	<edge id="77414953_3165874998_1724274080_3165875004" from="3165875004" to="1724273979" numLanes="1" speed="16.67" />
	<edge id="77414953_3165874998_1724274080_1724273979" from="1724273979" to="3165875005" numLanes="1" speed="16.67" />
	<edge id="77414953_3165874998_1724274080_3165875005" from="3165875005" to="1724274115" numLanes="1" speed="16.67" />
	<edge id="77414953_3165874998_1724274080_1724274115" from="1724274115" to="3165875006" numLanes="1" speed="16.67" />
	<edge id="77414953_3165874998_1724274080_3165875006" from="3165875006" to="1724274307" numLanes="1" speed="16.67" />
	<edge id="77414953_3165874998_1724274080_1724274307" from="1724274307" to="1724274328" numLanes="1" speed="16.67" />
	<edge id="77414953_3165874998_1724274080_1724274328" from="1724274328" to="1724274095" numLanes="1" speed="16.67" />
	<edge id="77414953_3165874998_1724274080_1724274095" from="1724274095" to="1724274278" numLanes="1" speed="16.67" />
	<edge id="77414953_3165874998_1724274080_1724274278" from="1724274278" to="1724274208" numLanes="1" speed="16.67" />
	<edge id="77414953_3165874998_1724274080_1724274208" from="1724274208" to="1724274206" numLanes="1" speed="16.67" />
	<edge id="77414953_3165874998_1724274080_1724274206" from="1724274206" to="1724274305" numLanes="1" speed="16.67" />
	<edge id="77414953_3165874998_1724274080_1724274305" from="1724274305" to="1724274134" numLanes="1" speed="16.67" />
	<edge id="77414953_3165874998_1724274080_1724274134" from="1724274134" to="1724274099" numLanes="1" speed="16.67" />
	<edge id="77414953_3165874998_1724274080_1724274099" from="1724274099" to="1724274352" numLanes="1" speed="16.67" />
	<edge id="77414953_3165874998_1724274080_1724274352" from="1724274352" to="1724273972" numLanes="1" speed="16.67" />
	<edge id="77414953_3165874998_1724274080_1724273972" from="1724273972" to="1724274220" numLanes="1" speed="16.67" />
	<edge id="77414953_3165874998_1724274080_1724274220" from="1724274220" to="1724274281" numLanes="1" speed="16.67" />
	<edge id="77414953_3165874998_1724274080_1724274281" from="1724274281" to="1724273958" numLanes="1" speed="16.67" />
	<edge id="77414953_3165874998_1724274080_1724273958" from="1724273958" to="1724274066" numLanes="1" speed="16.67" />
	<edge id="77414953_3165874998_1724274080_1724274066" from="1724274066" to="1724274029" numLanes="1" speed="16.67" />
	<edge id="77414953_3165874998_1724274080_1724274029" from="1724274029" to="1724274216" numLanes="1" speed="16.67" />
	<edge id="77414953_3165874998_1724274080_1724274216" from="1724274216" to="1724274001" numLanes="1" speed="16.67" />
	<edge id="77414953_3165874998_1724274080_1724274001" from="1724274001" to="1724273993" numLanes="1" speed="16.67" />
	<edge id="77414953_3165874998_1724274080_1724273993" from="1724273993" to="1724274308" numLanes="1" speed="16.67" />
	<edge id="77414953_3165874998_1724274080_1724274308" from="1724274308" to="1724274213" numLanes="1" speed="16.67" />
	<edge id="77414953_3165874998_1724274080_1724274213" from="1724274213" to="1724274215" numLanes="1" speed="16.67" />
	<edge id="77414953_3165874998_1724274080_1724274215" from="1724274215" to="1724274246" numLanes="1" speed="16.67" />
	<edge id="77414953_3165874998_1724274080_1724274246" from="1724274246" to="1724274034" numLanes="1" speed="16.67" />
	<edge id="77414953_3165874998_1724274080_1724274034" from="1724274034" to="1724274119" numLanes="1" speed="16.67" />
	<edge id="77414953_3165874998_1724274080_1724274119" from="1724274119" to="1724274264" numLanes="1" speed="16.67" />
	<edge id="77414953_3165874998_1724274080_1724274264" from="1724274264" to="1724273981" numLanes="1" speed="16.67" />
	<edge id="77414953_3165874998_1724274080_1724273981" from="1724273981" to="1724274280" numLanes="1" speed="16.67" />
	<edge id="77414953_3165874998_1724274080_1724274280" from="1724274280" to="1724274283" numLanes="1" speed="16.67" />
	<edge id="77414953_3165874998_1724274080_1724274283" from="1724274283" to="1724274210" numLanes="1" speed="16.67" />
	<edge id="77414953_3165874998_1724274080_1724274210" from="1724274210" to="1724274277" numLanes="1" speed="16.67" />
	<edge id="77414953_3165874998_1724274080_1724274277" from="1724274277" to="1724274175" numLanes="1" speed="16.67" />
	<edge id="77414953_3165874998_1724274080_1724274175" from="1724274175" to="1724274152" numLanes="1" speed="16.67" />
	<edge id="77414953_3165874998_1724274080_1724274152" from="1724274152" to="1724274140" numLanes="1" speed="16.67" />
	<edge id="77414953_3165874998_1724274080_1724274140" from="1724274140" to="1724274114" numLanes="1" speed="16.67" />
	<edge id="77414953_3165874998_1724274080_1724274114" from="1724274114" to="1724274106" numLanes="1" speed="16.67" />
	<edge id="77414953_3165874998_1724274080_1724274106" from="1724274106" to="1724274118" numLanes="1" speed="16.67" />
	<edge id="77414953_3165874998_1724274080_1724274118" from="1724274118" to="1724274204" numLanes="1" speed="16.67" />
	<edge id="77414953_3165874998_1724274080_1724274204" from="1724274204" to="1724274186" numLanes="1" speed="16.67" />
	<edge id="77414953_3165874998_1724274080_1724274186" from="1724274186" to="1724274357" numLanes="1" speed="16.67" />
	<edge id="77414953_3165874998_1724274080_1724274357" from="1724274357" to="1724274326" numLanes="1" speed="16.67" />
	<edge id="77414953_3165874998_1724274080_1724274326" from="1724274326" to="1724274310" numLanes="1" speed="16.67" />
	<edge id="77414953_3165874998_1724274080_1724274310" from="1724274310" to="1724274170" numLanes="1" speed="16.67" />
	<edge id="77414953_3165874998_1724274080_1724274170" from="1724274170" to="1724274138" numLanes="1" speed="16.67" />
	<edge id="77414953_3165874998_1724274080_1724274138" from="1724274138" to="1724274117" numLanes="1" speed="16.67" />
	<edge id="77414953_3165874998_1724274080_1724274117" from="1724274117" to="1724274116" numLanes="1" speed="16.67" />
	<edge id="77414953_3165874998_1724274080_1724274116" from="1724274116" to="1724274059" numLanes="1" speed="16.67" />
	<edge id="77414953_3165874998_1724274080_1724274059" from="1724274059" to="1724274337" numLanes="1" speed="16.67" />
	<edge id="77414953_3165874998_1724274080_1724274337" from="1724274337" to="1724274080" numLanes="1" speed="16.67" />
	<edge id="77414947_898091146_898091977_898091146" from="898091146" to="898091977" numLanes="1" speed="13.89" />
	<edge id="77414929_2163156799_898091146_2163156799" from="2163156799" to="2163156642" numLanes="1" speed="13.89" />
	<edge id="77414929_2163156799_898091146_2163156642" from="2163156642" to="2163156641" numLanes="1" speed="13.89" />
	<edge id="77414929_2163156799_898091146_2163156641" from="2163156641" to="2163156698" numLanes="1" speed="13.89" />
	<edge id="77414929_2163156799_898091146_2163156698" from="2163156698" to="898091389" numLanes="1" speed="13.89" />
	<edge id="77414929_2163156799_898091146_898091389" from="898091389" to="898092051" numLanes="1" speed="13.89" />
	<edge id="77414929_2163156799_898091146_898092051" from="898092051" to="2163156643" numLanes="1" speed="13.89" />
	<edge id="77414929_2163156799_898091146_2163156643" from="2163156643" to="898090936" numLanes="1" speed="13.89" />
	<edge id="77414929_2163156799_898091146_898090936" from="898090936" to="898090508" numLanes="1" speed="13.89" />
	<edge id="77414929_2163156799_898091146_898090508" from="898090508" to="898091852" numLanes="1" speed="13.89" />
	<edge id="77414929_2163156799_898091146_898091852" from="898091852" to="898090573" numLanes="1" speed="13.89" />
	<edge id="77414929_2163156799_898091146_898090573" from="898090573" to="898089975" numLanes="1" speed="13.89" />
	<edge id="77414929_2163156799_898091146_898089975" from="898089975" to="3165881672" numLanes="1" speed="13.89" />
	<edge id="77414929_2163156799_898091146_3165881672" from="3165881672" to="898091290" numLanes="1" speed="13.89" />
	<edge id="77414929_2163156799_898091146_898091290" from="898091290" to="3165881671" numLanes="1" speed="13.89" />
	<edge id="77414929_2163156799_898091146_3165881671" from="3165881671" to="898090828" numLanes="1" speed="13.89" />
	<edge id="77414929_2163156799_898091146_898090828" from="898090828" to="898092112" numLanes="1" speed="13.89" />
	<edge id="77414929_2163156799_898091146_898092112" from="898092112" to="3165881670" numLanes="1" speed="13.89" />
	<edge id="77414929_2163156799_898091146_3165881670" from="3165881670" to="898090153" numLanes="1" speed="13.89" />
	<edge id="77414929_2163156799_898091146_898090153" from="898090153" to="3165881669" numLanes="1" speed="13.89" />
	<edge id="77414929_2163156799_898091146_3165881669" from="3165881669" to="6071023512" numLanes="1" speed="13.89" />
	<edge id="77414929_2163156799_898091146_6071023512" from="6071023512" to="898090874" numLanes="1" speed="13.89" />
	<edge id="77414929_2163156799_898091146_898090874" from="898090874" to="898089842" numLanes="1" speed="13.89" />
	<edge id="77414929_2163156799_898091146_898089842" from="898089842" to="3165881668" numLanes="1" speed="13.89" />
	<edge id="77414929_2163156799_898091146_3165881668" from="3165881668" to="898091679" numLanes="1" speed="13.89" />
	<edge id="77414929_2163156799_898091146_898091679" from="898091679" to="3165881667" numLanes="1" speed="13.89" />
	<edge id="77414929_2163156799_898091146_3165881667" from="3165881667" to="898092023" numLanes="1" speed="13.89" />
	<edge id="77414929_2163156799_898091146_898092023" from="898092023" to="898091425" numLanes="1" speed="13.89" />
	<edge id="77414929_2163156799_898091146_898091425" from="898091425" to="898090917" numLanes="1" speed="13.89" />
	<edge id="77414929_2163156799_898091146_898090917" from="898090917" to="898091778" numLanes="1" speed="13.89" />
	<edge id="77414929_2163156799_898091146_898091778" from="898091778" to="898090212" numLanes="1" speed="13.89" />
	<edge id="77414929_2163156799_898091146_898090212" from="898090212" to="898091497" numLanes="1" speed="13.89" />
	<edge id="77414929_2163156799_898091146_898091497" from="898091497" to="898091259" numLanes="1" speed="13.89" />
	<edge id="77414929_2163156799_898091146_898091259" from="898091259" to="898090276" numLanes="1" speed="13.89" />
	<edge id="77414929_2163156799_898091146_898090276" from="898090276" to="898091035" numLanes="1" speed="13.89" />
	<edge id="77414929_2163156799_898091146_898091035" from="898091035" to="898090016" numLanes="1" speed="13.89" />
	<edge id="77414929_2163156799_898091146_898090016" from="898090016" to="898090354" numLanes="1" speed="13.89" />
	<edge id="77414929_2163156799_898091146_898090354" from="898090354" to="898092138" numLanes="1" speed="13.89" />
	<edge id="77414929_2163156799_898091146_898092138" from="898092138" to="898090894" numLanes="1" speed="13.89" />
	<edge id="77414929_2163156799_898091146_898090894" from="898090894" to="898091719" numLanes="1" speed="13.89" />
	<edge id="77414929_2163156799_898091146_898091719" from="898091719" to="898090497" numLanes="1" speed="13.89" />
	<edge id="77414929_2163156799_898091146_898090497" from="898090497" to="898092047" numLanes="1" speed="13.89" />
	<edge id="77414929_2163156799_898091146_898092047" from="898092047" to="898090561" numLanes="1" speed="13.89" />
	<edge id="77414929_2163156799_898091146_898090561" from="898090561" to="898091842" numLanes="1" speed="13.89" />
	<edge id="77414929_2163156799_898091146_898091842" from="898091842" to="898092105" numLanes="1" speed="13.89" />
	<edge id="77414929_2163156799_898091146_898092105" from="898092105" to="898090053" numLanes="1" speed="13.89" />
	<edge id="77414929_2163156799_898091146_898090053" from="898090053" to="898091908" numLanes="1" speed="13.89" />
	<edge id="77414929_2163156799_898091146_898091908" from="898091908" to="898090379" numLanes="1" speed="13.89" />
	<edge id="77414929_2163156799_898091146_898090379" from="898090379" to="898091067" numLanes="1" speed="13.89" />
	<edge id="77414929_2163156799_898091146_898091067" from="898091067" to="898092066" numLanes="1" speed="13.89" />
	<edge id="77414929_2163156799_898091146_898092066" from="898092066" to="898090587" numLanes="1" speed="13.89" />
	<edge id="77414929_2163156799_898091146_898090587" from="898090587" to="898089996" numLanes="1" speed="13.89" />
	<edge id="77414929_2163156799_898091146_898089996" from="898089996" to="898091248" numLanes="1" speed="13.89" />
	<edge id="77414929_2163156799_898091146_898091248" from="898091248" to="898092124" numLanes="1" speed="13.89" />
	<edge id="77414929_2163156799_898091146_898092124" from="898092124" to="898091565" numLanes="1" speed="13.89" />
	<edge id="77414929_2163156799_898091146_898091565" from="898091565" to="898091026" numLanes="1" speed="13.89" />
	<edge id="77414929_2163156799_898091146_898091026" from="898091026" to="898090093" numLanes="1" speed="13.89" />
	<edge id="77414929_2163156799_898091146_898090093" from="898090093" to="898091930" numLanes="1" speed="13.89" />
	<edge id="77414929_2163156799_898091146_898091930" from="898091930" to="898091306" numLanes="1" speed="13.89" />
	<edge id="77414929_2163156799_898091146_898091306" from="898091306" to="898090643" numLanes="1" speed="13.89" />
	<edge id="77414929_2163156799_898091146_898090643" from="898090643" to="898091985" numLanes="1" speed="13.89" />
	<edge id="77414929_2163156799_898091146_898091985" from="898091985" to="898091374" numLanes="1" speed="13.89" />
	<edge id="77414929_2163156799_898091146_898091374" from="898091374" to="898090892" numLanes="1" speed="13.89" />
	<edge id="77414929_2163156799_898091146_898090892" from="898090892" to="898090410" numLanes="1" speed="13.89" />
	<edge id="77414929_2163156799_898091146_898090410" from="898090410" to="898090706" numLanes="1" speed="13.89" />
	<edge id="77414929_2163156799_898091146_898090706" from="898090706" to="2242429067" numLanes="1" speed="13.89" />
	<edge id="77414929_2163156799_898091146_2242429067" from="2242429067" to="898090170" numLanes="1" speed="13.89" />
	<edge id="77414929_2163156799_898091146_898090170" from="898090170" to="898090930" numLanes="1" speed="13.89" />
	<edge id="77414929_2163156799_898091146_898090930" from="898090930" to="898090495" numLanes="1" speed="13.89" />
	<edge id="77414929_2163156799_898091146_898090495" from="898090495" to="898089860" numLanes="1" speed="13.89" />
	<edge id="77414929_2163156799_898091146_898089860" from="898089860" to="898092094" numLanes="1" speed="13.89" />
	<edge id="77414929_2163156799_898091146_898092094" from="898092094" to="898091516" numLanes="1" speed="13.89" />
	<edge id="77414929_2163156799_898091146_898091516" from="898091516" to="898090036" numLanes="1" speed="13.89" />
	<edge id="77414929_2163156799_898091146_898090036" from="898090036" to="898091902" numLanes="1" speed="13.89" />
	<edge id="77414929_2163156799_898091146_898091902" from="898091902" to="898091268" numLanes="1" speed="13.89" />
	<edge id="77414929_2163156799_898091146_898091268" from="898091268" to="898091047" numLanes="1" speed="13.89" />
	<edge id="77414929_2163156799_898091146_898091047" from="898091047" to="898090615" numLanes="1" speed="13.89" />
	<edge id="77414929_2163156799_898091146_898090615" from="898090615" to="898091340" numLanes="1" speed="13.89" />
	<edge id="77414929_2163156799_898091146_898091340" from="898091340" to="898090856" numLanes="1" speed="13.89" />
	<edge id="77414929_2163156799_898091146_898090856" from="898090856" to="898091117" numLanes="1" speed="13.89" />
	<edge id="77414929_2163156799_898091146_898091117" from="898091117" to="898090664" numLanes="1" speed="13.89" />
	<edge id="77414929_2163156799_898091146_898090664" from="898090664" to="898090138" numLanes="1" speed="13.89" />
	<edge id="77414929_2163156799_898091146_898090138" from="898090138" to="898089828" numLanes="1" speed="13.89" />
	<edge id="77414929_2163156799_898091146_898089828" from="898089828" to="898090729" numLanes="1" speed="13.89" />
	<edge id="77414929_2163156799_898091146_898090729" from="898090729" to="898090197" numLanes="1" speed="13.89" />
	<edge id="77414929_2163156799_898091146_898090197" from="898090197" to="898090943" numLanes="1" speed="13.89" />
	<edge id="77414929_2163156799_898091146_898090943" from="898090943" to="898089898" numLanes="1" speed="13.89" />
	<edge id="77414929_2163156799_898091146_898089898" from="898089898" to="898091753" numLanes="1" speed="13.89" />
	<edge id="77414929_2163156799_898091146_898091753" from="898091753" to="898091553" numLanes="1" speed="13.89" />
	<edge id="77414929_2163156799_898091146_898091553" from="898091553" to="898091925" numLanes="1" speed="13.89" />
	<edge id="77414929_2163156799_898091146_898091925" from="898091925" to="898090335" numLanes="1" speed="13.89" />
	<edge id="77414929_2163156799_898091146_898090335" from="898090335" to="898091077" numLanes="1" speed="13.89" />
	<edge id="77414929_2163156799_898091146_898091077" from="898091077" to="3165874997" numLanes="1" speed="13.89" />
	<edge id="77414929_2163156799_898091146_3165874997" from="3165874997" to="898090633" numLanes="1" speed="13.89" />
	<edge id="77414929_2163156799_898091146_898090633" from="898090633" to="898090088" numLanes="1" speed="13.89" />
	<edge id="77414929_2163156799_898091146_898090088" from="898090088" to="898090401" numLanes="1" speed="13.89" />
	<edge id="77414929_2163156799_898091146_898090401" from="898090401" to="898089801" numLanes="1" speed="13.89" />
	<edge id="77414929_2163156799_898091146_898089801" from="898089801" to="898091146" numLanes="1" speed="13.89" />
	<edge id="77414932_898091375_3165874998_898091375" from="898091375" to="898091880" numLanes="1" speed="13.89" />