<?xml version="1.0" ?>
<!-- Generated by VSimRTI -->
<routes>
	<vType id="default" length="7.5" maxSpeed="50" minGap="2.0" carFollowModel="Krauss" accel="0.80" decel="4.5" sigma="0.5" tau="1"/>
	<route id="1" edges="77414929_2163156799_898091146_898091497 77414929_2163156799_898091146_898091259 77414929_2163156799_898091146_898090276 77414929_2163156799_898091146_898091035 77414929_2163156799_898091146_898090016 77414929_2163156799_898091146_898090354 77414929_2163156799_898091146_898092138 77414929_2163156799_898091146_898090894 77414929_2163156799_898091146_898091719 77414929_2163156799_898091146_898090497 77414929_2163156799_898091146_898092047 77414929_2163156799_898091146_898090561 77414929_2163156799_898091146_898091842 77414929_2163156799_898091146_898092105 77414929_2163156799_898091146_898090053 77414929_2163156799_898091146_898091908 77414929_2163156799_898091146_898090379 77414929_2163156799_898091146_898091067 77414929_2163156799_898091146_898092066 77414929_2163156799_898091146_898090587 77414929_2163156799_898091146_898089996 77414929_2163156799_898091146_898091248 77414929_2163156799_898091146_898092124 77414929_2163156799_898091146_898091565 77414929_2163156799_898091146_898091026 77414929_2163156799_898091146_898090093 77414929_2163156799_898091146_898091930 77414929_2163156799_898091146_898091306 77414929_2163156799_898091146_898090643 77414929_2163156799_898091146_898091985 77414929_2163156799_898091146_898091374 77414929_2163156799_898091146_898090892 77414929_2163156799_898091146_898090410 77414929_2163156799_898091146_898090706 77414929_2163156799_898091146_2242429067 77414929_2163156799_898091146_898090170 77414929_2163156799_898091146_898090930 77414929_2163156799_898091146_898090495 77414929_2163156799_898091146_898089860 77414929_2163156799_898091146_898092094 77414929_2163156799_898091146_898091516 77414929_2163156799_898091146_898090036 77414929_2163156799_898091146_898091902 77414929_2163156799_898091146_898091268 77414929_2163156799_898091146_898091047 77414929_2163156799_898091146_898090615 77414929_2163156799_898091146_898091340 77414929_2163156799_898091146_898090856 77414929_2163156799_898091146_898091117 77414929_2163156799_898091146_898090664 77414929_2163156799_898091146_898090138 77414929_2163156799_898091146_898089828 77414929_2163156799_898091146_898090729 77414929_2163156799_898091146_898090197 77414929_2163156799_898091146_898090943 77414929_2163156799_898091146_898089898 77414929_2163156799_898091146_898091753 77414929_2163156799_898091146_898091553 77414929_2163156799_898091146_898091925 77414929_2163156799_898091146_898090335 77414929_2163156799_898091146_898091077 77414929_2163156799_898091146_3165874997 77414929_2163156799_898091146_898090633 77414929_2163156799_898091146_898090088 77414929_2163156799_898091146_898090401 77414929_2163156799_898091146_898089801 77414947_898091146_898091977_898091146 77414953_898091977_3165874998_898091977 77414953_3165874998_1724274080_3165874998 77414953_3165874998_1724274080_3165874999 77414953_3165874998_1724274080_3165875000 77414953_3165874998_1724274080_2242428472 77414953_3165874998_1724274080_911175126 77414953_3165874998_1724274080_3165875001 77414953_3165874998_1724274080_3165875002 77414953_3165874998_1724274080_911175154 77414953_3165874998_1724274080_3165875003 77414953_3165874998_1724274080_3165875004 77414953_3165874998_1724274080_1724273979 77414953_3165874998_1724274080_3165875005 77414953_3165874998_1724274080_1724274115 77414953_3165874998_1724274080_3165875006 77414953_3165874998_1724274080_1724274307 77414953_3165874998_1724274080_1724274328 77414953_3165874998_1724274080_1724274095 77414953_3165874998_1724274080_1724274278 77414953_3165874998_1724274080_1724274208 77414953_3165874998_1724274080_1724274206 77414953_3165874998_1724274080_1724274305 77414953_3165874998_1724274080_1724274134 77414953_3165874998_1724274080_1724274099 77414953_3165874998_1724274080_1724274352 77414953_3165874998_1724274080_1724273972 77414953_3165874998_1724274080_1724274220 77414953_3165874998_1724274080_1724274281 77414953_3165874998_1724274080_1724273958 77414953_3165874998_1724274080_1724274066 77414953_3165874998_1724274080_1724274029 77414953_3165874998_1724274080_1724274216 77414953_3165874998_1724274080_1724274001 77414953_3165874998_1724274080_1724273993 77414953_3165874998_1724274080_1724274308 77414953_3165874998_1724274080_1724274213 77414953_3165874998_1724274080_1724274215 77414953_3165874998_1724274080_1724274246 77414953_3165874998_1724274080_1724274034 77414953_3165874998_1724274080_1724274119 77414953_3165874998_1724274080_1724274264 77414953_3165874998_1724274080_1724273981 77414953_3165874998_1724274080_1724274280 77414953_3165874998_1724274080_1724274283 77414953_3165874998_1724274080_1724274210 77414953_3165874998_1724274080_1724274277 77414953_3165874998_1724274080_1724274175 77414953_3165874998_1724274080_1724274152 77414953_3165874998_1724274080_1724274140 77414953_3165874998_1724274080_1724274114 77414953_3165874998_1724274080_1724274106 77414953_3165874998_1724274080_1724274118 77414953_3165874998_1724274080_1724274204 77414953_3165874998_1724274080_1724274186 77414953_3165874998_1724274080_1724274357 77414953_3165874998_1724274080_1724274326 77414953_3165874998_1724274080_1724274310 77414953_3165874998_1724274080_1724274170 77414953_3165874998_1724274080_1724274138 77414953_3165874998_1724274080_1724274117 77414953_3165874998_1724274080_1724274116 77414953_3165874998_1724274080_1724274059 77414953_3165874998_1724274080_1724274337 77414953_1724274080_3165874998_1724274080 77414953_1724274080_3165874998_1724274337 77414953_1724274080_3165874998_1724274059 77414953_1724274080_3165874998_1724274116 77414953_1724274080_3165874998_1724274117 77414953_1724274080_3165874998_1724274138 77414953_1724274080_3165874998_1724274170 77414953_1724274080_3165874998_1724274310 77414953_1724274080_3165874998_1724274326 77414953_1724274080_3165874998_1724274357 77414953_1724274080_3165874998_1724274186 77414953_1724274080_3165874998_1724274204 77414953_1724274080_3165874998_1724274118 77414953_1724274080_3165874998_1724274106 77414953_1724274080_3165874998_1724274114 77414953_1724274080_3165874998_1724274140" />
	<route id="2" edges="77414953_1724274080_3165874998_1724274152 77414953_1724274080_3165874998_1724274175 77414953_1724274080_3165874998_1724274277 77414953_1724274080_3165874998_1724274210 77414953_1724274080_3165874998_1724274283 77414953_1724274080_3165874998_1724274280 77414953_1724274080_3165874998_1724273981 77414953_1724274080_3165874998_1724274264 77414953_1724274080_3165874998_1724274119 77414953_1724274080_3165874998_1724274034 77414953_1724274080_3165874998_1724274246 77414953_1724274080_3165874998_1724274215 77414953_1724274080_3165874998_1724274213 77414953_1724274080_3165874998_1724274308 77414953_1724274080_3165874998_1724273993 77414953_1724274080_3165874998_1724274001 77414953_1724274080_3165874998_1724274216 77414953_1724274080_3165874998_1724274029 77414953_1724274080_3165874998_1724274066 77414953_1724274080_3165874998_1724273958 77414953_1724274080_3165874998_1724274281 77414953_1724274080_3165874998_1724274220 77414953_1724274080_3165874998_1724273972 77414953_1724274080_3165874998_1724274352 77414953_1724274080_3165874998_1724274099 77414953_1724274080_3165874998_1724274134 77414953_1724274080_3165874998_1724274305 77414953_1724274080_3165874998_1724274206 77414953_1724274080_3165874998_1724274208 77414953_1724274080_3165874998_1724274278 77414953_1724274080_3165874998_1724274095 77414953_1724274080_3165874998_1724274328 77414953_1724274080_3165874998_1724274307 77414953_1724274080_3165874998_3165875006 77414953_1724274080_3165874998_1724274115 77414953_1724274080_3165874998_3165875005 77414953_1724274080_3165874998_1724273979 77414953_1724274080_3165874998_3165875004 77414953_1724274080_3165874998_3165875003 77414953_1724274080_3165874998_911175154 77414953_1724274080_3165874998_3165875002 77414953_1724274080_3165874998_3165875001 77414953_1724274080_3165874998_911175126 77414953_1724274080_3165874998_2242428472 77414953_1724274080_3165874998_3165875000 77414953_1724274080_3165874998_3165874999 77414953_3165874998_898091977_3165874998 77414947_898091977_898091146_898091977 77414929_898091146_2163156799_898091146 77414929_898091146_2163156799_898089801 77414929_898091146_2163156799_898090401 77414929_898091146_2163156799_898090088 77414929_898091146_2163156799_898090633 77414929_898091146_2163156799_3165874997 77414929_898091146_2163156799_898091077 77414929_898091146_2163156799_898090335 77414929_898091146_2163156799_898091925 77414929_898091146_2163156799_898091553 77414929_898091146_2163156799_898091753 77414929_898091146_2163156799_898089898 77414929_898091146_2163156799_898090943 77414929_898091146_2163156799_898090197 77414929_898091146_2163156799_898090729 77414929_898091146_2163156799_898089828 77414929_898091146_2163156799_898090138 77414929_898091146_2163156799_898090664 77414929_898091146_2163156799_898091117 77414929_898091146_2163156799_898090856 77414929_898091146_2163156799_898091340 77414929_898091146_2163156799_898090615 77414929_898091146_2163156799_898091047 77414929_898091146_2163156799_898091268 77414929_898091146_2163156799_898091902 77414929_898091146_2163156799_898090036 77414929_898091146_2163156799_898091516 77414929_898091146_2163156799_898092094 77414929_898091146_2163156799_898089860 77414929_898091146_2163156799_898090495 77414929_898091146_2163156799_898090930 77414929_898091146_2163156799_898090170 77414929_898091146_2163156799_2242429067 77414929_898091146_2163156799_898090706 77414929_898091146_2163156799_898090410 77414929_898091146_2163156799_898090892 77414929_898091146_2163156799_898091374 77414929_898091146_2163156799_898091985 77414929_898091146_2163156799_898090643 77414929_898091146_2163156799_898091306 77414929_898091146_2163156799_898091930 77414929_898091146_2163156799_898090093 77414929_898091146_2163156799_898091026 77414929_898091146_2163156799_898091565 77414929_898091146_2163156799_898092124 77414929_898091146_2163156799_898091248 77414929_898091146_2163156799_898089996 77414929_898091146_2163156799_898090587 77414929_898091146_2163156799_898092066 77414929_898091146_2163156799_898091067 77414929_898091146_2163156799_898090379 77414929_898091146_2163156799_898091908 77414929_898091146_2163156799_898090053 77414929_898091146_2163156799_898092105 77414929_898091146_2163156799_898091842 77414929_898091146_2163156799_898090561 77414929_898091146_2163156799_898092047 77414929_898091146_2163156799_898090497 77414929_898091146_2163156799_898091719 77414929_898091146_2163156799_898090894 77414929_898091146_2163156799_898092138 77414929_898091146_2163156799_898090354 77414929_898091146_2163156799_898090016 77414929_898091146_2163156799_898091035 77414929_898091146_2163156799_898090276 77414929_898091146_2163156799_898091259 77414929_898091146_2163156799_898091497 77414929_898091146_2163156799_898090212 77414929_898091146_2163156799_898091778 77414929_898091146_2163156799_898090917 77414929_898091146_2163156799_898091425 77414929_898091146_2163156799_898092023 77414929_898091146_2163156799_3165881667 77414929_898091146_2163156799_898091679 77414929_898091146_2163156799_3165881668 77414929_898091146_2163156799_898089842 77414929_898091146_2163156799_898090874 77414929_898091146_2163156799_6071023512 77414929_898091146_2163156799_3165881669 77414929_898091146_2163156799_898090153 77414929_898091146_2163156799_3165881670 77414929_898091146_2163156799_898092112 77414929_898091146_2163156799_898090828 77414929_898091146_2163156799_3165881671 77414929_898091146_2163156799_898091290 77414929_898091146_2163156799_3165881672 77414929_898091146_2163156799_898089975 77414929_898091146_2163156799_898090573 77414929_898091146_2163156799_898091852 77414929_898091146_2163156799_898090508 77414929_898091146_2163156799_898090936 77414929_898091146_2163156799_2163156643 77414929_898091146_2163156799_898092051 77414929_898091146_2163156799_898091389 77414929_898091146_2163156799_2163156698 77414929_898091146_2163156799_2163156641 77414929_898091146_2163156799_2163156642 77414929_2163156799_898091146_2163156799 77414929_2163156799_898091146_2163156642 77414929_2163156799_898091146_2163156641 77414929_2163156799_898091146_2163156698 77414929_2163156799_898091146_898091389 77414929_2163156799_898091146_898092051 77414929_2163156799_898091146_2163156643 77414929_2163156799_898091146_898090936 77414929_2163156799_898091146_898090508 77414929_2163156799_898091146_898091852 77414929_2163156799_898091146_898090573 77414929_2163156799_898091146_898089975 77414929_2163156799_898091146_3165881672 77414929_2163156799_898091146_898091290 77414929_2163156799_898091146_3165881671 77414929_2163156799_898091146_898090828 77414929_2163156799_898091146_898092112 77414929_2163156799_898091146_3165881670 77414929_2163156799_898091146_898090153 77414929_2163156799_898091146_3165881669 77414929_2163156799_898091146_6071023512 77414929_2163156799_898091146_898090874 77414929_2163156799_898091146_898089842 77414929_2163156799_898091146_3165881668 77414929_2163156799_898091146_898091679 77414929_2163156799_898091146_3165881667 77414929_2163156799_898091146_898092023 77414929_2163156799_898091146_898091425 77414929_2163156799_898091146_898090917 77414929_2163156799_898091146_898091778 77414929_2163156799_898091146_898090212" />
	<route id="3" edges="77414953_1724274080_3165874998_1724274152 77414953_1724274080_3165874998_1724274175 77414953_1724274080_3165874998_1724274277 77414953_1724274080_3165874998_1724274210 77414953_1724274080_3165874998_1724274283 77414953_1724274080_3165874998_1724274280 77414953_1724274080_3165874998_1724273981 77414953_1724274080_3165874998_1724274264 77414953_1724274080_3165874998_1724274119 77414953_1724274080_3165874998_1724274034 77414953_1724274080_3165874998_1724274246 77414953_1724274080_3165874998_1724274215 77414953_1724274080_3165874998_1724274213 77414953_1724274080_3165874998_1724274308 77414953_1724274080_3165874998_1724273993 77414953_1724274080_3165874998_1724274001 77414953_1724274080_3165874998_1724274216 77414953_1724274080_3165874998_1724274029 77414953_1724274080_3165874998_1724274066 77414953_1724274080_3165874998_1724273958 77414953_1724274080_3165874998_1724274281 77414953_1724274080_3165874998_1724274220 77414953_1724274080_3165874998_1724273972 77414953_1724274080_3165874998_1724274352 77414953_1724274080_3165874998_1724274099 77414953_1724274080_3165874998_1724274134 77414953_1724274080_3165874998_1724274305 77414953_1724274080_3165874998_1724274206 77414953_1724274080_3165874998_1724274208 77414953_1724274080_3165874998_1724274278 77414953_1724274080_3165874998_1724274095 77414953_1724274080_3165874998_1724274328 77414953_1724274080_3165874998_1724274307 77414953_1724274080_3165874998_3165875006 77414953_1724274080_3165874998_1724274115 77414953_1724274080_3165874998_3165875005 77414953_1724274080_3165874998_1724273979 77414953_1724274080_3165874998_3165875004 77414953_1724274080_3165874998_3165875003 77414953_1724274080_3165874998_911175154 77414953_1724274080_3165874998_3165875002 77414953_1724274080_3165874998_3165875001 77414953_1724274080_3165874998_911175126 77414953_1724274080_3165874998_2242428472 77414953_1724274080_3165874998_3165875000 77414953_1724274080_3165874998_3165874999 77414932_3165874998_898091375_3165874998 77414932_3165874998_898091375_898090925 77414932_3165874998_898091375_898090484 77414932_3165874998_898091375_898089856 77414932_3165874998_898091375_898091708 77414932_3165874998_898091375_898090753 77414932_3165874998_898091375_898090234 77414932_3165874998_898091375_898092040 77414932_3165874998_898091375_898091445 77414932_3165874998_898091375_898090552 77414932_3165874998_898091375_898089944 77414932_3165874998_898091375_898091794 77414932_3165874998_898091375_898091212 77414932_3165874998_898091375_898091580 77414932_3165874998_898091375_898091039 77414932_3165874998_898091375_898090603 77414932_3165874998_898091375_898090021 77414932_3165874998_898091375_898091328 77414932_3165874998_898091375_898090846 77414932_3165874998_898091375_898090363 77414932_3165874998_898091375_898089763 77414932_3165874998_898091375_898091106 77414932_3165874998_898091375_898090660 77414932_3165874998_898091375_898090118 77414932_3165874998_898091375_898091946 77414932_3165874998_898091375_898090907 77414932_3165874998_898091375_898090435 77414932_3165874998_898091375_898089815 77414932_3165874998_898091375_898091644 77414932_3165874998_898091375_898090723 77414932_3165874998_898091375_898090189 77414932_3165874998_898091375_898092002 77414932_3165874998_898091375_898091397 77414932_3165874998_898091375_898090510 77414932_3165874998_898091375_898089882 77414932_3165874998_898091375_898091744 77414932_3165874998_898091375_898091168 77414932_3165874998_898091375_898090263 77414932_3165874998_898091375_898092062 77414932_3165874998_898091375_898091470 77414932_3165874998_898091375_898090940 77414932_3165874998_898091375_898089986 77414932_3165874998_898091375_898091859 77414932_3165874998_898091375_898091240 77414932_3165874998_898091375_898090778 77414932_3165874998_898091375_898090912 77414932_3165874998_898091375_898090456 77414932_3165874998_898091375_898089829 77414932_3165874998_898091375_898091662 77414932_3165874998_898091375_898090730 77414932_3165874998_898091375_898090199 77414932_3165874998_898091375_898092009 77414932_3165874998_898091375_898091406 77414932_3165874998_898091375_898090522 77414932_3165874998_898091375_898089900 77414932_3165874998_898091375_898091755 77414932_3165874998_898091375_898091181 77414932_3165874998_898091375_898090272 77414932_3165874998_898091375_898092067 77414932_3165874998_898091375_898091480 77414932_3165874998_898091375_898090945 77414932_3165874998_898091375_898089998 77414932_3165874998_898091375_898091870 77414932_3165874998_898091375_898091250 77414932_3165874998_898091375_898090791 77414932_3165874998_898091375_898092125 77414932_3165874998_898091375_898091566 77414932_3165874998_898091375_898091028 77414932_3165874998_898091375_898090589 77414932_3165874998_898091375_898091933 77414932_3165874998_898091375_898091307 77414932_3165874998_898091375_898090836 77414932_3165874998_898091375_898090348 77414932_3165874998_898091375_898091624 77414932_3165874998_898091375_898091088 77414932_3165874998_898091375_898090644 77414932_3165874998_898091375_898090095 77414932_3165874998_898091375_898090493 77414932_3165874998_898091375_898089858 77414932_3165874998_898091375_898091709 77414932_3165874998_898091375_898091149 77414932_3165874998_898091375_898090236 77414932_3165874998_898091375_898092042 77414932_3165874998_898091375_898091446 77414932_3165874998_898091375_898090927 77414932_3165874998_898091375_898089946 77414932_3165874998_898091375_898091799 77414932_3165874998_898091375_898091215 77414932_3165874998_898091375_898090755 77414932_3165874998_898091375_898092098 77414932_3165874998_898091375_898091521 77414932_3165874998_898091375_898090981 77414932_3165874998_898091375_898090554 77414932_3165874998_898091375_898091904 77414932_3165874998_898091375_898091270 77414932_3165874998_898091375_898090815 77414932_3165874998_898091375_898090305 77414932_3165874998_898091375_898091596 77414932_3165874998_898091375_898091050 77414932_3165874998_898091375_898090616 77414932_3165874998_898091375_898090039 77414932_3165874998_898091375_898091343 77414932_3165874998_898091375_898090858 77414932_3165874998_898091375_898090371 77414932_3165874998_898091375_898089776 77414932_3165874998_898091375_898091118 77414932_3165874998_898091375_898090669 77414932_3165874998_898091375_898090139 77414932_3165874998_898091375_898091954 77414932_3165874998_898091375_898089895 77414932_3165874998_898091375_898091749 77414932_3165874998_898091375_898091169 77414932_3165874998_898091375_898090726 77414932_3165874998_898091375_898092064 77414932_3165874998_898091375_898091475 77414932_3165874998_898091375_898090941 77414932_3165874998_898091375_898090514 77414932_3165874998_898091375_898091865 77414932_3165874998_898091375_898091246 77414932_3165874998_898091375_898090781 77414932_3165874998_898091375_898090266 77414932_3165874998_898091375_898091560 77414932_3165874998_898091375_898091022 77414932_3165874998_898091375_898090583 77414932_3165874998_898091375_898089990 77414932_3165874998_898091375_898091303 77414932_3165874998_898091375_898090833 77414932_3165874998_898091375_898090336 77414932_3165874998_898091375_898092122 77414932_3165874998_898091375_898091082 77414932_3165874998_898091375_898090641 77414932_3165874998_898091375_898090089 77414932_3165874998_898091375_898091927 77414932_3165874998_898091375_898090890 77414932_3165874998_898091375_898090403 77414932_3165874998_898091375_898089802 77414932_3165874998_898091375_898091619 77414932_3165874998_898091375_898090704 77414932_3165874998_898091375_898090168 77414932_3165874998_898091375_898091980 77414932_3165874998_898091375_898091370 77414932_3165874998_898091375_898091791 77414932_3165874998_898091375_898091202 77414932_3165874998_898091375_898090749 77414932_3165874998_898091375_898090231 77414932_3165874998_898091375_898091511 77414932_3165874998_898091375_898090963 77414932_3165874998_898091375_898090548 77414932_3165874998_898091375_898089941 77414932_3165874998_898091375_898091266 77414932_3165874998_898091375_898090807 77414932_3165874998_898091375_898090291 77414932_3165874998_898091375_898092090 77414932_3165874998_898091375_4498263441 77414932_3165874998_898091375_898091042 77414932_3165874998_898091375_898090606 77414932_3165874998_898091375_898090023 77414932_3165874998_898091375_898091890 77414932_3165874998_898091375_898090850" />