<connections>
	<connection from="77414953_3165874998_898091977_3165874998" to="77414953_898091977_3165874998_898091977" />
	<connection from="77414953_3165874998_898091977_3165874998" to="77414947_898091977_898091146_898091977" />
	<connection from="77414929_898091146_2163156799_898091146" to="77414929_898091146_2163156799_898089801" />
	<connection from="77414929_898091146_2163156799_898089801" to="77414929_898091146_2163156799_898090401" />
	<connection from="77414929_898091146_2163156799_898090401" to="77414929_898091146_2163156799_898090088" />
	<connection from="77414929_898091146_2163156799_898090088" to="77414929_898091146_2163156799_898090633" />
	<connection from="77414929_898091146_2163156799_898090633" to="77414929_898091146_2163156799_3165874997" />
	<connection from="77414929_898091146_2163156799_3165874997" to="77414929_898091146_2163156799_898091077" />
	<connection from="77414929_898091146_2163156799_898091077" to="77414929_898091146_2163156799_898090335" />
	<connection from="77414929_898091146_2163156799_898090335" to="77414929_898091146_2163156799_898091925" />
	<connection from="77414929_898091146_2163156799_898091925" to="77414929_898091146_2163156799_898091553" />
	<connection from="77414929_898091146_2163156799_898091553" to="77414929_898091146_2163156799_898091753" />
	<connection from="77414929_898091146_2163156799_898091753" to="77414929_898091146_2163156799_898089898" />
	<connection from="77414929_898091146_2163156799_898089898" to="77414929_898091146_2163156799_898090943" />
	<connection from="77414929_898091146_2163156799_898090943" to="77414929_898091146_2163156799_898090197" />
	<connection from="77414929_898091146_2163156799_898090197" to="77414929_898091146_2163156799_898090729" />
	<connection from="77414929_898091146_2163156799_898090729" to="77414929_898091146_2163156799_898089828" />
	<connection from="77414929_898091146_2163156799_898089828" to="77414929_898091146_2163156799_898090138" />
	<connection from="77414929_898091146_2163156799_898090138" to="77414929_898091146_2163156799_898090664" />
	<connection from="77414929_898091146_2163156799_898090664" to="77414929_898091146_2163156799_898091117" />
	<connection from="77414929_898091146_2163156799_898091117" to="77414929_898091146_2163156799_898090856" />
	<connection from="77414929_898091146_2163156799_898090856" to="77414929_898091146_2163156799_898091340" />
	<connection from="77414929_898091146_2163156799_898091340" to="77414929_898091146_2163156799_898090615" />
	<connection from="77414929_898091146_2163156799_898090615" to="77414929_898091146_2163156799_898091047" />
	<connection from="77414929_898091146_2163156799_898091047" to="77414929_898091146_2163156799_898091268" />
	<connection from="77414929_898091146_2163156799_898091268" to="77414929_898091146_2163156799_898091902" />
	<connection from="77414929_898091146_2163156799_898091902" to="77414929_898091146_2163156799_898090036" />
	<connection from="77414929_898091146_2163156799_898090036" to="77414929_898091146_2163156799_898091516" />
	<connection from="77414929_898091146_2163156799_898091516" to="77414929_898091146_2163156799_898092094" />
	<connection from="77414929_898091146_2163156799_898092094" to="77414929_898091146_2163156799_898089860" />
	<connection from="77414929_898091146_2163156799_898089860" to="77414929_898091146_2163156799_898090495" />
	<connection from="77414929_898091146_2163156799_898090495" to="77414929_898091146_2163156799_898090930" />
	<connection from="77414929_898091146_2163156799_898090930" to="77414929_898091146_2163156799_898090170" />
	<connection from="77414929_898091146_2163156799_898090170" to="77414929_898091146_2163156799_2242429067" />
	<connection from="77414929_898091146_2163156799_2242429067" to="77414929_898091146_2163156799_898090706" />
	<connection from="77414929_898091146_2163156799_898090706" to="77414929_898091146_2163156799_898090410" />
	<connection from="77414929_898091146_2163156799_898090410" to="77414929_898091146_2163156799_898090892" />
	<connection from="77414929_898091146_2163156799_898090892" to="77414929_898091146_2163156799_898091374" />
	<connection from="77414929_898091146_2163156799_898091374" to="77414929_898091146_2163156799_898091985" />
	<connection from="77414929_898091146_2163156799_898091985" to="77414929_898091146_2163156799_898090643" />
	<connection from="77414929_898091146_2163156799_898090643" to="77414929_898091146_2163156799_898091306" />
	<connection from="77414929_898091146_2163156799_898091306" to="77414929_898091146_2163156799_898091930" />
	<connection from="77414929_898091146_2163156799_898091930" to="77414929_898091146_2163156799_898090093" />
	<connection from="77414929_898091146_2163156799_898090093" to="77414929_898091146_2163156799_898091026" />
	<connection from="77414929_898091146_2163156799_898091026" to="77414929_898091146_2163156799_898091565" />
	<connection from="77414929_898091146_2163156799_898091565" to="77414929_898091146_2163156799_898092124" />
	<connection from="77414929_898091146_2163156799_898092124" to="77414929_898091146_2163156799_898091248" />
	<connection from="77414929_898091146_2163156799_898091248" to="77414929_898091146_2163156799_898089996" />
	<connection from="77414929_898091146_2163156799_898089996" to="77414929_898091146_2163156799_898090587" />
	<connection from="77414929_898091146_2163156799_898090587" to="77414929_898091146_2163156799_898092066" />
	<connection from="77414929_898091146_2163156799_898092066" to="77414929_898091146_2163156799_898091067" />
	<connection from="77414929_898091146_2163156799_898091067" to="77414929_898091146_2163156799_898090379" />
	<connection from="77414929_898091146_2163156799_898090379" to="77414929_898091146_2163156799_898091908" />
	<connection from="77414929_898091146_2163156799_898091908" to="77414929_898091146_2163156799_898090053" />
	<connection from="77414929_898091146_2163156799_898090053" to="77414929_898091146_2163156799_898092105" />
	<connection from="77414929_898091146_2163156799_898092105" to="77414929_898091146_2163156799_898091842" />
	<connection from="77414929_898091146_2163156799_898091842" to="77414929_898091146_2163156799_898090561" />
	<connection from="77414929_898091146_2163156799_898090561" to="77414929_898091146_2163156799_898092047" />
	<connection from="77414929_898091146_2163156799_898092047" to="77414929_898091146_2163156799_898090497" />
	<connection from="77414929_898091146_2163156799_898090497" to="77414929_898091146_2163156799_898091719" />
	<connection from="77414929_898091146_2163156799_898091719" to="77414929_898091146_2163156799_898090894" />
	<connection from="77414929_898091146_2163156799_898090894" to="77414929_898091146_2163156799_898092138" />
	<connection from="77414929_898091146_2163156799_898092138" to="77414929_898091146_2163156799_898090354" />
	<connection from="77414929_898091146_2163156799_898090354" to="77414929_898091146_2163156799_898090016" />
	<connection from="77414929_898091146_2163156799_898090016" to="77414929_898091146_2163156799_898091035" />
	<connection from="77414929_898091146_2163156799_898091035" to="77414929_898091146_2163156799_898090276" />
	<connection from="77414929_898091146_2163156799_898090276" to="77414929_898091146_2163156799_898091259" />
	<connection from="77414929_898091146_2163156799_898091259" to="77414929_898091146_2163156799_898091497" />
	<connection from="77414929_898091146_2163156799_898091497" to="77414929_898091146_2163156799_898090212" />
	<connection from="77414929_898091146_2163156799_898090212" to="77414929_898091146_2163156799_898091778" />
	<connection from="77414929_898091146_2163156799_898091778" to="77414929_898091146_2163156799_898090917" />
	<connection from="77414929_898091146_2163156799_898090917" to="77414929_898091146_2163156799_898091425" />
	<connection from="77414929_898091146_2163156799_898091425" to="77414929_898091146_2163156799_898092023" />
	<connection from="77414929_898091146_2163156799_898092023" to="77414929_898091146_2163156799_3165881667" />
	<connection from="77414929_898091146_2163156799_3165881667" to="77414929_898091146_2163156799_898091679" />
	<connection from="77414929_898091146_2163156799_898091679" to="77414929_898091146_2163156799_3165881668" />
	<connection from="77414929_898091146_2163156799_3165881668" to="77414929_898091146_2163156799_898089842" />
	<connection from="77414929_898091146_2163156799_898089842" to="77414929_898091146_2163156799_898090874" />
	<connection from="77414929_898091146_2163156799_898090874" to="77414929_898091146_2163156799_6071023512" />
	<connection from="77414929_898091146_2163156799_6071023512" to="77414929_898091146_2163156799_3165881669" />
	<connection from="77414929_898091146_2163156799_3165881669" to="77414929_898091146_2163156799_898090153" />
	<connection from="77414929_898091146_2163156799_898090153" to="77414929_898091146_2163156799_3165881670" />
	<connection from="77414929_898091146_2163156799_3165881670" to="77414929_898091146_2163156799_898092112" />
	<connection from="77414929_898091146_2163156799_898092112" to="77414929_898091146_2163156799_898090828" />
	<connection from="77414929_898091146_2163156799_898090828" to="77414929_898091146_2163156799_3165881671" />
	<connection from="77414929_898091146_2163156799_3165881671" to="77414929_898091146_2163156799_898091290" />
	<connection from="77414929_898091146_2163156799_898091290" to="77414929_898091146_2163156799_3165881672" />
	<connection from="77414929_898091146_2163156799_3165881672" to="77414929_898091146_2163156799_898089975" />
	<connection from="77414929_898091146_2163156799_898089975" to="77414929_898091146_2163156799_898090573" />
	<connection from="77414929_898091146_2163156799_898090573" to="77414929_898091146_2163156799_898091852" />
	<connection from="77414929_898091146_2163156799_898091852" to="77414929_898091146_2163156799_898090508" />
	<connection from="77414929_898091146_2163156799_898090508" to="77414929_898091146_2163156799_898090936" />
	<connection from="77414929_898091146_2163156799_898090936" to="77414929_898091146_2163156799_2163156643" />
	<connection from="77414929_898091146_2163156799_2163156643" to="77414929_898091146_2163156799_898092051" />
	<connection from="77414929_898091146_2163156799_898092051" to="77414929_898091146_2163156799_898091389" />
	<connection from="77414929_898091146_2163156799_898091389" to="77414929_898091146_2163156799_2163156698" />
	<connection from="77414929_898091146_2163156799_2163156698" to="77414929_898091146_2163156799_2163156641" />
	<connection from="77414929_898091146_2163156799_2163156641" to="77414929_898091146_2163156799_2163156642" />
	<connection from="77414929_898091146_2163156799_2163156642" to="77414929_2163156799_898091146_2163156799" />
	<connection from="77414953_898091977_3165874998_898091977" to="77414953_3165874998_898091977_3165874998" />
	<connection from="77414953_898091977_3165874998_898091977" to="77414953_3165874998_1724274080_3165874998" />
	<connection from="77414953_898091977_3165874998_898091977" to="77414932_3165874998_898091375_3165874998" />
	<connection from="77414953_3165874998_1724274080_3165874998" to="77414953_3165874998_1724274080_3165874999" />
	<connection from="77414953_3165874998_1724274080_3165874999" to="77414953_3165874998_1724274080_3165875000" />
	<connection from="77414953_3165874998_1724274080_3165875000" to="77414953_3165874998_1724274080_2242428472" />
	<connection from="77414953_3165874998_1724274080_2242428472" to="77414953_3165874998_1724274080_911175126" />
	<connection from="77414953_3165874998_1724274080_911175126" to="77414953_3165874998_1724274080_3165875001" />
	<connection from="77414953_3165874998_1724274080_3165875001" to="77414953_3165874998_1724274080_3165875002" />
	<connection from="77414953_3165874998_1724274080_3165875002" to="77414953_3165874998_1724274080_911175154" />
	<connection from="77414953_3165874998_1724274080_911175154" to="77414953_3165874998_1724274080_3165875003" />
	<connection from="77414953_3165874998_1724274080_3165875003" to="77414953_3165874998_1724274080_3165875004" />
	<connection from="77414953_3165874998_1724274080_3165875004" to="77414953_3165874998_1724274080_1724273979" />
	<connection from="77414953_3165874998_1724274080_1724273979" to="77414953_3165874998_1724274080_3165875005" />
	<connection from="77414953_3165874998_1724274080_3165875005" to="77414953_3165874998_1724274080_1724274115" />
	<connection from="77414953_3165874998_1724274080_1724274115" to="77414953_3165874998_1724274080_3165875006" />
	<connection from="77414953_3165874998_1724274080_3165875006" to="77414953_3165874998_1724274080_1724274307" />
	<connection from="77414953_3165874998_1724274080_1724274307" to="77414953_3165874998_1724274080_1724274328" />
	<connection from="77414953_3165874998_1724274080_1724274328" to="77414953_3165874998_1724274080_1724274095" />
	<connection from="77414953_3165874998_1724274080_1724274095" to="77414953_3165874998_1724274080_1724274278" />
	<connection from="77414953_3165874998_1724274080_1724274278" to="77414953_3165874998_1724274080_1724274208" />
	<connection from="77414953_3165874998_1724274080_1724274208" to="77414953_3165874998_1724274080_1724274206" />
	<connection from="77414953_3165874998_1724274080_1724274206" to="77414953_3165874998_1724274080_1724274305" />
	<connection from="77414953_3165874998_1724274080_1724274305" to="77414953_3165874998_1724274080_1724274134" />
	<connection from="77414953_3165874998_1724274080_1724274134" to="77414953_3165874998_1724274080_1724274099" />
	<connection from="77414953_3165874998_1724274080_1724274099" to="77414953_3165874998_1724274080_1724274352" />
	<connection from="77414953_3165874998_1724274080_1724274352" to="77414953_3165874998_1724274080_1724273972" />
	<connection from="77414953_3165874998_1724274080_1724273972" to="77414953_3165874998_1724274080_1724274220" />
	<connection from="77414953_3165874998_1724274080_1724274220" to="77414953_3165874998_1724274080_1724274281" />
	<connection from="77414953_3165874998_1724274080_1724274281" to="77414953_3165874998_1724274080_1724273958" />
	<connection from="77414953_3165874998_1724274080_1724273958" to="77414953_3165874998_1724274080_1724274066" />
	<connection from="77414953_3165874998_1724274080_1724274066" to="77414953_3165874998_1724274080_1724274029" />
	<connection from="77414953_3165874998_1724274080_1724274029" to="77414953_3165874998_1724274080_1724274216" />
	<connection from="77414953_3165874998_1724274080_1724274216" to="77414953_3165874998_1724274080_1724274001" />
	<connection from="77414953_3165874998_1724274080_1724274001" to="77414953_3165874998_1724274080_1724273993" />
	<connection from="77414953_3165874998_1724274080_1724273993" to="77414953_3165874998_1724274080_1724274308" />
	<connection from="77414953_3165874998_1724274080_1724274308" to="77414953_3165874998_1724274080_1724274213" />
	<connection from="77414953_3165874998_1724274080_1724274213" to="77414953_3165874998_1724274080_1724274215" />
	<connection from="77414953_3165874998_1724274080_1724274215" to="77414953_3165874998_1724274080_1724274246" />
	<connection from="77414953_3165874998_1724274080_1724274246" to="77414953_3165874998_1724274080_1724274034" />
	<connection from="77414953_3165874998_1724274080_1724274034" to="77414953_3165874998_1724274080_1724274119" />
	<connection from="77414953_3165874998_1724274080_1724274119" to="77414953_3165874998_1724274080_1724274264" />
	<connection from="77414953_3165874998_1724274080_1724274264" to="77414953_3165874998_1724274080_1724273981" />
	<connection from="77414953_3165874998_1724274080_1724273981" to="77414953_3165874998_1724274080_1724274280" />
	<connection from="77414953_3165874998_1724274080_1724274280" to="77414953_3165874998_1724274080_1724274283" />
	<connection from="77414953_3165874998_1724274080_1724274283" to="77414953_3165874998_1724274080_1724274210" />
	<connection from="77414953_3165874998_1724274080_1724274210" to="77414953_3165874998_1724274080_1724274277" />
	<connection from="77414953_3165874998_1724274080_1724274277" to="77414953_3165874998_1724274080_1724274175" />
	<connection from="77414953_3165874998_1724274080_1724274175" to="77414953_3165874998_1724274080_1724274152" />
	<connection from="77414953_3165874998_1724274080_1724274152" to="77414953_3165874998_1724274080_1724274140" />
	<connection from="77414953_3165874998_1724274080_1724274140" to="77414953_3165874998_1724274080_1724274114" />
	<connection from="77414953_3165874998_1724274080_1724274114" to="77414953_3165874998_1724274080_1724274106" />
	<connection from="77414953_3165874998_1724274080_1724274106" to="77414953_3165874998_1724274080_1724274118" />
	<connection from="77414953_3165874998_1724274080_1724274118" to="77414953_3165874998_1724274080_1724274204" />
	<connection from="77414953_3165874998_1724274080_1724274204" to="77414953_3165874998_1724274080_1724274186" />
	<connection from="77414953_3165874998_1724274080_1724274186" to="77414953_3165874998_1724274080_1724274357" />
	<connection from="77414953_3165874998_1724274080_1724274357" to="77414953_3165874998_1724274080_1724274326" />
	<connection from="77414953_3165874998_1724274080_1724274326" to="77414953_3165874998_1724274080_1724274310" />
	<connection from="77414953_3165874998_1724274080_1724274310" to="77414953_3165874998_1724274080_1724274170" />
	<connection from="77414953_3165874998_1724274080_1724274170" to="77414953_3165874998_1724274080_1724274138" />
	<connection from="77414953_3165874998_1724274080_1724274138" to="77414953_3165874998_1724274080_1724274117" />
	<connection from="77414953_3165874998_1724274080_1724274117" to="77414953_3165874998_1724274080_1724274116" />
	<connection from="77414953_3165874998_1724274080_1724274116" to="77414953_3165874998_1724274080_1724274059" />
	<connection from="77414953_3165874998_1724274080_1724274059" to="77414953_3165874998_1724274080_1724274337" />
	<connection from="77414953_3165874998_1724274080_1724274337" to="77414953_1724274080_3165874998_1724274080" />
	<connection from="77414947_898091146_898091977_898091146" to="77414953_898091977_3165874998_898091977" />
	<connection from="77414947_898091146_898091977_898091146" to="77414947_898091977_898091146_898091977" />
	<connection from="77414929_2163156799_898091146_2163156799" to="77414929_2163156799_898091146_2163156642" />
	<connection from="77414929_2163156799_898091146_2163156642" to="77414929_2163156799_898091146_2163156641" />
	<connection from="77414929_2163156799_898091146_2163156641" to="77414929_2163156799_898091146_2163156698" />
	<connection from="77414929_2163156799_898091146_2163156698" to="77414929_2163156799_898091146_898091389" />
	<connection from="77414929_2163156799_898091146_898091389" to="77414929_2163156799_898091146_898092051" />
	<connection from="77414929_2163156799_898091146_898092051" to="77414929_2163156799_898091146_2163156643" />
	<connection from="77414929_2163156799_898091146_2163156643" to="77414929_2163156799_898091146_898090936" />
	<connection from="77414929_2163156799_898091146_898090936" to="77414929_2163156799_898091146_898090508" />
	<connection from="77414929_2163156799_898091146_898090508" to="77414929_2163156799_898091146_898091852" />
	<connection from="77414929_2163156799_898091146_898091852" to="77414929_2163156799_898091146_898090573" />
	<connection from="77414929_2163156799_898091146_898090573" to="77414929_2163156799_898091146_898089975" />
	<connection from="77414929_2163156799_898091146_898089975" to="77414929_2163156799_898091146_3165881672" />
	<connection from="77414929_2163156799_898091146_3165881672" to="77414929_2163156799_898091146_898091290" />
	<connection from="77414929_2163156799_898091146_898091290" to="77414929_2163156799_898091146_3165881671" />
	<connection from="77414929_2163156799_898091146_3165881671" to="77414929_2163156799_898091146_898090828" />
	<connection from="77414929_2163156799_898091146_898090828" to="77414929_2163156799_898091146_898092112" />
	<connection from="77414929_2163156799_898091146_898092112" to="77414929_2163156799_898091146_3165881670" />
	<connection from="77414929_2163156799_898091146_3165881670" to="77414929_2163156799_898091146_898090153" />
	<connection from="77414929_2163156799_898091146_898090153" to="77414929_2163156799_898091146_3165881669" />
	<connection from="77414929_2163156799_898091146_3165881669" to="77414929_2163156799_898091146_6071023512" />
	<connection from="77414929_2163156799_898091146_6071023512" to="77414929_2163156799_898091146_898090874" />
	<connection from="77414929_2163156799_898091146_898090874" to="77414929_2163156799_898091146_898089842" />
	<connection from="77414929_2163156799_898091146_898089842" to="77414929_2163156799_898091146_3165881668" />
	<connection from="77414929_2163156799_898091146_3165881668" to="77414929_2163156799_898091146_898091679" />
	<connection from="77414929_2163156799_898091146_898091679" to="77414929_2163156799_898091146_3165881667" />
	<connection from="77414929_2163156799_898091146_3165881667" to="77414929_2163156799_898091146_898092023" />
	<connection from="77414929_2163156799_898091146_898092023" to="77414929_2163156799_898091146_898091425" />
	<connection from="77414929_2163156799_898091146_898091425" to="77414929_2163156799_898091146_898090917" />
	<connection from="77414929_2163156799_898091146_898090917" to="77414929_2163156799_898091146_898091778" />
	<connection from="77414929_2163156799_898091146_898091778" to="77414929_2163156799_898091146_898090212" />
	<connection from="77414929_2163156799_898091146_898090212" to="77414929_2163156799_898091146_898091497" />
	<connection from="77414929_2163156799_898091146_898091497" to="77414929_2163156799_898091146_898091259" />
	<connection from="77414929_2163156799_898091146_898091259" to="77414929_2163156799_898091146_898090276" />
	<connection from="77414929_2163156799_898091146_898090276" to="77414929_2163156799_898091146_898091035" />
	<connection from="77414929_2163156799_898091146_898091035" to="77414929_2163156799_898091146_898090016" />
	<connection from="77414929_2163156799_898091146_898090016" to="77414929_2163156799_898091146_898090354" />
	<connection from="77414929_2163156799_898091146_898090354" to="77414929_2163156799_898091146_898092138" />
	<connection from="77414929_2163156799_898091146_898092138" to="77414929_2163156799_898091146_898090894" />
	<connection from="77414929_2163156799_898091146_898090894" to="77414929_2163156799_898091146_898091719" />
	<connection from="77414929_2163156799_898091146_898091719" to="77414929_2163156799_898091146_898090497" />
	<connection from="77414929_2163156799_898091146_898090497" to="77414929_2163156799_898091146_898092047" />
	<connection from="77414929_2163156799_898091146_898092047" to="77414929_2163156799_898091146_898090561" />
	<connection from="77414929_2163156799_898091146_898090561" to="77414929_2163156799_898091146_898091842" />
	<connection from="77414929_2163156799_898091146_898091842" to="77414929_2163156799_898091146_898092105" />
	<connection from="77414929_2163156799_898091146_898092105" to="77414929_2163156799_898091146_898090053" />
	<connection from="77414929_2163156799_898091146_898090053" to="77414929_2163156799_898091146_898091908" />
	<connection from="77414929_2163156799_898091146_898091908" to="77414929_2163156799_898091146_898090379" />
	<connection from="77414929_2163156799_898091146_898090379" to="77414929_2163156799_898091146_898091067" />
	<connection from="77414929_2163156799_898091146_898091067" to="77414929_2163156799_898091146_898092066" />
	<connection from="77414929_2163156799_898091146_898092066" to="77414929_2163156799_898091146_898090587" />
	<connection from="77414929_2163156799_898091146_898090587" to="77414929_2163156799_898091146_898089996" />
	<connection from="77414929_2163156799_898091146_898089996" to="77414929_2163156799_898091146_898091248" />
	<connection from="77414929_2163156799_898091146_898091248" to="77414929_2163156799_898091146_898092124" />
	<connection from="77414929_2163156799_898091146_898092124" to="77414929_2163156799_898091146_898091565" />
	<connection from="77414929_2163156799_898091146_898091565" to="77414929_2163156799_898091146_898091026" />
	<connection from="77414929_2163156799_898091146_898091026" to="77414929_2163156799_898091146_898090093" />
	<connection from="77414929_2163156799_898091146_898090093" to="77414929_2163156799_898091146_898091930" />
	<connection from="77414929_2163156799_898091146_898091930" to="77414929_2163156799_898091146_898091306" />
	<connection from="77414929_2163156799_898091146_898091306" to="77414929_2163156799_898091146_898090643" />
	<connection from="77414929_2163156799_898091146_898090643" to="77414929_2163156799_898091146_898091985" />
	<connection from="77414929_2163156799_898091146_898091985" to="77414929_2163156799_898091146_898091374" />
	<connection from="77414929_2163156799_898091146_898091374" to="77414929_2163156799_898091146_898090892" />
	<connection from="77414929_2163156799_898091146_898090892" to="77414929_2163156799_898091146_898090410" />
	<connection from="77414929_2163156799_898091146_898090410" to="77414929_2163156799_898091146_898090706" />
	<connection from="77414929_2163156799_898091146_898090706" to="77414929_2163156799_898091146_2242429067" />
	<connection from="77414929_2163156799_898091146_2242429067" to="77414929_2163156799_898091146_898090170" />
	<connection from="77414929_2163156799_898091146_898090170" to="77414929_2163156799_898091146_898090930" />
	<connection from="77414929_2163156799_898091146_898090930" to="77414929_2163156799_898091146_898090495" />
	<connection from="77414929_2163156799_898091146_898090495" to="77414929_2163156799_898091146_898089860" />
	<connection from="77414929_2163156799_898091146_898089860" to="77414929_2163156799_898091146_898092094" />
	<connection from="77414929_2163156799_898091146_898092094" to="77414929_2163156799_898091146_898091516" />
	<connection from="77414929_2163156799_898091146_898091516" to="77414929_2163156799_898091146_898090036" />
	<connection from="77414929_2163156799_898091146_898090036" to="77414929_2163156799_898091146_898091902" />
	<connection from="77414929_2163156799_898091146_898091902" to="77414929_2163156799_898091146_898091268" />
	<connection from="77414929_2163156799_898091146_898091268" to="77414929_2163156799_898091146_898091047" />
	<connection from="77414929_2163156799_898091146_898091047" to="77414929_2163156799_898091146_898090615" />
	<connection from="77414929_2163156799_898091146_898090615" to="77414929_2163156799_898091146_898091340" />
	<connection from="77414929_2163156799_898091146_898091340" to="77414929_2163156799_898091146_898090856" />
	<connection from="77414929_2163156799_898091146_898090856" to="77414929_2163156799_898091146_898091117" />
	<connection from="77414929_2163156799_898091146_898091117" to="77414929_2163156799_898091146_898090664" />
	<connection from="77414929_2163156799_898091146_898090664" to="77414929_2163156799_898091146_898090138" />
	<connection from="77414929_2163156799_898091146_898090138" to="77414929_2163156799_898091146_898089828" />
	<connection from="77414929_2163156799_898091146_898089828" to="77414929_2163156799_898091146_898090729" />
	<connection from="77414929_2163156799_898091146_898090729" to="77414929_2163156799_898091146_898090197" />
	<connection from="77414929_2163156799_898091146_898090197" to="77414929_2163156799_898091146_898090943" />
	<connection from="77414929_2163156799_898091146_898090943" to="77414929_2163156799_898091146_898089898" />
	<connection from="77414929_2163156799_898091146_898089898" to="77414929_2163156799_898091146_898091753" />
	<connection from="77414929_2163156799_898091146_898091753" to="77414929_2163156799_898091146_898091553" />
	<connection from="77414929_2163156799_898091146_898091553" to="77414929_2163156799_898091146_898091925" />
	<connection from="77414929_2163156799_898091146_898091925" to="77414929_2163156799_898091146_898090335" />
	<connection from="77414929_2163156799_898091146_898090335" to="77414929_2163156799_898091146_898091077" />
	<connection from="77414929_2163156799_898091146_898091077" to="77414929_2163156799_898091146_3165874997" />
	<connection from="77414929_2163156799_898091146_3165874997" to="77414929_2163156799_898091146_898090633" />
	<connection from="77414929_2163156799_898091146_898090633" to="77414929_2163156799_898091146_898090088" />
	<connection from="77414929_2163156799_898091146_898090088" to="77414929_2163156799_898091146_898090401" />
	<connection from="77414929_2163156799_898091146_898090401" to="77414929_2163156799_898091146_898089801" />
	<connection from="77414929_2163156799_898091146_898089801" to="77414929_898091146_2163156799_898091146" />
	<connection from="77414929_2163156799_898091146_898089801" to="77414947_898091146_898091977_898091146" />
	<connection from="77414932_898091375_3165874998_898091375" to="77414932_898091375_3165874998_898091880" />
	<connection from="77414932_898091375_3165874998_898091880" to="77414932_898091375_3165874998_898090015" />
	<connection from="77414932_898091375_3165874998_898090015" to="77414932_898091375_3165874998_898090595" />
	<connection from="77414932_898091375_3165874998_898090595" to="77414932_898091375_3165874998_898091495" />
	<connection from="77414932_898091375_3165874998_898091495" to="77414932_898091375_3165874998_898092079" />
	<connection from="77414932_898091375_3165874998_898092079" to="77414932_898091375_3165874998_898090275" />
	<connection from="77414932_898091375_3165874998_898090275" to="77414932_898091375_3165874998_898090795" />
	<connection from="77414932_898091375_3165874998_898090795" to="77414932_898091375_3165874998_898091765" />
	<connection from="77414932_898091375_3165874998_898091765" to="77414932_898091375_3165874998_898089916" />
	<connection from="77414932_898091375_3165874998_898089916" to="77414932_898091375_3165874998_898090528" />