<?xml version="1.0" encoding="UTF-8"?>

<!-- generated on Wed Jun 10 15:16:20 2020 by Eclipse SUMO netconvert Version 1.2.0
<configuration xmlns:xsi="http://www.w3.org/2001/XMLSchema-instance" xsi:noNamespaceSchemaLocation="http://sumo.dlr.de/xsd/netconvertConfiguration.xsd">

    <input>
        <node-files value="/home/vsimrti/scenarios/ids/sumo/gualtar11/gualtar11.nod.xml"/>
        <edge-files value="/home/vsimrti/scenarios/ids/sumo/gualtar11/gualtar11.edg.xml"/>
        <connection-files value="/home/vsimrti/scenarios/ids/sumo/gualtar11/gualtar11.con.xml"/>
    </input>

    <output>
        <output-file value="/home/vsimrti/scenarios/ids/sumo/gualtar11/gualtar11.net.xml"/>
    </output>

</configuration>
-->

<net version="1.1" junctionCornerDetail="5" limitTurnSpeed="5.50" xmlns:xsi="http://www.w3.org/2001/XMLSchema-instance" xsi:noNamespaceSchemaLocation="http://sumo.dlr.de/xsd/net_file.xsd">

    <location netOffset="-619800.95,-4568650.29" convBoundary="0.00,0.00,5165.94,2576.58" origBoundary="619800.95,4568650.29,624966.90,4571226.87" projParameter="!"/>

    <edge id=":1724273958_0" function="internal">
        <lane id=":1724273958_0_0" index="0" speed="16.67" length="0.32" shape="1539.53,1739.38 1539.44,1739.37 1539.38,1739.36 1539.31,1739.37 1539.22,1739.38"/>
    </edge>
    <edge id=":1724273958_1" function="internal">
        <lane id=":1724273958_1_0" index="0" speed="16.67" length="0.95" shape="1538.91,1736.19 1539.19,1736.16 1539.38,1736.16 1539.58,1736.17 1539.86,1736.19"/>
    </edge>
    <edge id=":1724273972_0" function="internal">
        <lane id=":1724273972_0_0" index="0" speed="9.48" length="1.83" shape="1268.00,1683.01 1267.49,1682.81 1267.16,1682.64 1266.85,1682.42 1266.45,1682.06"/>
    </edge>
    <edge id=":1724273972_1" function="internal">
        <lane id=":1724273972_1_0" index="0" speed="16.67" length="0.61" shape="1268.60,1679.69 1268.73,1679.81 1268.83,1679.89 1268.94,1679.94 1269.11,1680.01"/>
    </edge>
    <edge id=":1724273979_0" function="internal">
        <lane id=":1724273979_0_0" index="0" speed="16.67" length="0.41" shape="1721.13,1229.19 1721.15,1229.59"/>
    </edge>
    <edge id=":1724273979_1" function="internal">
        <lane id=":1724273979_1_0" index="0" speed="16.67" length="0.14" shape="1717.95,1229.58 1717.94,1229.45"/>
    </edge>
    <edge id=":1724273981_0" function="internal">
        <lane id=":1724273981_0_0" index="0" speed="16.67" length="0.54" shape="1426.86,2203.45 1426.72,2203.53 1426.64,2203.60 1426.56,2203.68 1426.45,2203.80"/>
    </edge>
    <edge id=":1724273981_1" function="internal">
        <lane id=":1724273981_1_0" index="0" speed="11.10" length="1.62" shape="1424.00,2201.75 1424.31,2201.38 1424.54,2201.15 1424.81,2200.95 1425.22,2200.70"/>
    </edge>
    <edge id=":1724273993_0" function="internal">
        <lane id=":1724273993_0_0" index="0" speed="4.19" length="1.26" shape="1641.04,1868.44 1640.82,1868.68 1640.67,1868.95 1640.57,1869.24 1640.53,1869.56"/>
    </edge>
    <edge id=":1724273993_1" function="internal">
        <lane id=":1724273993_1_0" index="0" speed="6.63" length="3.79" shape="1637.33,1869.46 1637.45,1868.50 1637.75,1867.62 1638.22,1866.82 1638.86,1866.10"/>
    </edge>
    <edge id=":1724274001_0" function="internal">
        <lane id=":1724274001_0_0" index="0" speed="16.67" length="0.40" shape="1692.74,1820.34 1692.46,1820.62"/>
    </edge>
    <edge id=":1724274001_1" function="internal">
        <lane id=":1724274001_1_0" index="0" speed="16.67" length="0.13" shape="1690.28,1818.28 1690.38,1818.18"/>
    </edge>
    <edge id=":1724274029_0" function="internal">
        <lane id=":1724274029_0_0" index="0" speed="4.33" length="1.12" shape="1717.28,1765.41 1717.17,1765.10 1717.06,1764.90 1716.90,1764.74 1716.63,1764.55"/>
    </edge>
    <edge id=":1724274029_1" function="internal">
        <lane id=":1724274029_1_0" index="0" speed="6.89" length="3.37" shape="1718.38,1761.87 1719.19,1762.44 1719.69,1762.92 1720.02,1763.53 1720.34,1764.47"/>
    </edge>
    <edge id=":1724274034_0" function="internal">
        <lane id=":1724274034_0_0" index="0" speed="16.67" length="1.21" shape="1583.59,2155.70 1583.38,2155.99 1583.22,2156.18 1583.04,2156.35 1582.77,2156.58"/>
    </edge>
    <edge id=":1724274034_1" function="internal">
        <lane id=":1724274034_1_0" index="0" speed="16.67" length="0.40" shape="1580.71,2154.13 1580.80,2154.05 1580.86,2153.99 1580.92,2153.93 1580.99,2153.83"/>
    </edge>
    <edge id=":1724274059_0" function="internal">
        <lane id=":1724274059_0_0" index="0" speed="16.67" length="0.38" shape="2326.57,2523.05 2326.46,2523.02 2326.38,2523.00 2326.31,2522.99 2326.19,2522.99"/>
    </edge>
    <edge id=":1724274059_1" function="internal">
        <lane id=":1724274059_1_0" index="0" speed="16.67" length="1.15" shape="2326.30,2519.79 2326.64,2519.80 2326.88,2519.83 2327.11,2519.88 2327.43,2519.97"/>
    </edge>
    <edge id=":1724274066_0" function="internal">
        <lane id=":1724274066_0_0" index="0" speed="16.67" length="0.77" shape="1703.82,1756.15 1703.63,1756.03 1703.48,1755.96 1703.33,1755.92 1703.10,1755.90"/>
    </edge>
    <edge id=":1724274066_1" function="internal">
        <lane id=":1724274066_1_0" index="0" speed="7.94" length="2.32" shape="1703.42,1752.71 1704.10,1752.79 1704.57,1752.90 1704.99,1753.11 1705.57,1753.47"/>
    </edge>
    <edge id=":1724274080_0" function="internal">
        <lane id=":1724274080_0_0" index="0" speed="3.65" length="4.67" shape="2435.36,2575.19 2436.00,2576.48 2435.95,2577.37 2435.20,2577.87 2433.76,2577.96"/>
    </edge>
    <edge id=":1724274095_0" function="internal">
        <lane id=":1724274095_0_0" index="0" speed="16.67" length="0.93" shape="1647.04,1452.52 1646.77,1452.59 1646.60,1452.67 1646.45,1452.79 1646.25,1452.98"/>
    </edge>
    <edge id=":1724274095_1" function="internal">
        <lane id=":1724274095_1_0" index="0" speed="7.30" length="2.80" shape="1643.92,1450.79 1644.50,1450.20 1644.95,1449.85 1645.48,1449.63 1646.27,1449.42"/>
    </edge>
    <edge id=":1724274099_0" function="internal">
        <lane id=":1724274099_0_0" index="0" speed="6.71" length="3.78" shape="1235.52,1628.09 1235.27,1627.01 1235.25,1626.23 1235.47,1625.48 1235.99,1624.50"/>
    </edge>
    <edge id=":1724274099_1" function="internal">
        <lane id=":1724274099_1_0" index="0" speed="4.24" length="1.26" shape="1238.77,1626.08 1238.60,1626.41 1238.52,1626.66 1238.53,1626.92 1238.62,1627.28"/>
    </edge>
    <edge id=":1724274106_0" function="internal">
        <lane id=":1724274106_0_0" index="0" speed="15.39" length="1.42" shape="1628.60,2503.44 1628.18,2503.48 1627.89,2503.49 1627.60,2503.46 1627.19,2503.39"/>
    </edge>
    <edge id=":1724274106_1" function="internal">
        <lane id=":1724274106_1_0" index="0" speed="16.67" length="0.47" shape="1627.75,2500.24 1627.89,2500.27 1627.99,2500.28 1628.08,2500.27 1628.22,2500.26"/>
    </edge>
    <edge id=":1724274114_0" function="internal">
        <lane id=":1724274114_0_0" index="0" speed="8.18" length="2.20" shape="1585.62,2495.92 1584.99,2495.80 1584.56,2495.66 1584.16,2495.44 1583.63,2495.07"/>
    </edge>
    <edge id=":1724274114_1" function="internal">
        <lane id=":1724274114_1_0" index="0" speed="16.67" length="0.73" shape="1585.53,2492.49 1585.70,2492.61 1585.83,2492.69 1585.98,2492.73 1586.19,2492.77"/>
    </edge>
    <edge id=":1724274115_0" function="internal">
        <lane id=":1724274115_0_0" index="0" speed="16.67" length="0.31" shape="1717.59,1267.62 1717.54,1267.93"/>
    </edge>
    <edge id=":1724274115_1" function="internal">
        <lane id=":1724274115_1_0" index="0" speed="16.67" length="0.24" shape="1714.39,1267.35 1714.43,1267.11"/>
    </edge>
    <edge id=":1724274116_0" function="internal">
        <lane id=":1724274116_0_0" index="0" speed="16.67" length="0.41" shape="2302.28,2522.14 2302.16,2522.14 2302.07,2522.14 2301.99,2522.16 2301.87,2522.18"/>
    </edge>
    <edge id=":1724274116_1" function="internal">
        <lane id=":1724274116_1_0" index="0" speed="16.67" length="1.22" shape="2301.18,2519.06 2301.54,2518.98 2301.78,2518.94 2302.03,2518.94 2302.39,2518.95"/>
    </edge>
    <edge id=":1724274117_0" function="internal">
        <lane id=":1724274117_0_0" index="0" speed="7.65" length="2.50" shape="2184.48,2548.13 2183.75,2548.27 2183.24,2548.31 2182.74,2548.23 2182.03,2548.03"/>
    </edge>
    <edge id=":1724274117_1" function="internal">
        <lane id=":1724274117_1_0" index="0" speed="16.67" length="0.83" shape="2182.97,2544.97 2183.21,2545.04 2183.37,2545.06 2183.54,2545.05 2183.78,2545.00"/>
    </edge>
    <edge id=":1724274118_0" function="internal">
        <lane id=":1724274118_0_0" index="0" speed="16.67" length="0.52" shape="1676.89,2497.70 1676.74,2497.74 1676.64,2497.76 1676.54,2497.77 1676.38,2497.79"/>
    </edge>
    <edge id=":1724274118_1" function="internal">
        <lane id=":1724274118_1_0" index="0" speed="16.67" length="0.17" shape="1676.01,2494.61 1676.06,2494.61 1676.09,2494.60 1676.13,2494.60 1676.18,2494.58"/>
    </edge>
    <edge id=":1724274119_0" function="internal">
        <lane id=":1724274119_0_0" index="0" speed="7.38" length="2.72" shape="1562.83,2173.28 1562.20,2173.78 1561.72,2174.07 1561.19,2174.23 1560.40,2174.35"/>
    </edge>
    <edge id=":1724274119_1" function="internal">
        <lane id=":1724274119_1_0" index="0" speed="16.67" length="0.91" shape="1559.96,2171.18 1560.23,2171.14 1560.40,2171.09 1560.56,2170.99 1560.77,2170.83"/>
    </edge>
    <edge id=":1724274134_0" function="internal">
        <lane id=":1724274134_0_0" index="0" speed="4.29" length="1.18" shape="1253.93,1600.22 1253.61,1600.34 1253.40,1600.47 1253.23,1600.65 1253.05,1600.95"/>
    </edge>
    <edge id=":1724274134_1" function="internal">
        <lane id=":1724274134_1_0" index="0" speed="6.80" length="3.55" shape="1250.27,1599.37 1250.81,1598.48 1251.30,1597.93 1251.93,1597.55 1252.91,1597.19"/>
    </edge>
    <edge id=":1724274138_0" function="internal">
        <lane id=":1724274138_0_0" index="0" speed="16.67" length="0.16" shape="2138.28,2534.59 2138.23,2534.58 2138.20,2534.57 2138.17,2534.56 2138.12,2534.55"/>
    </edge>
    <edge id=":1724274138_1" function="internal">
        <lane id=":1724274138_1_0" index="0" speed="16.67" length="0.48" shape="2138.75,2531.41 2138.89,2531.44 2138.99,2531.47 2139.08,2531.49 2139.22,2531.53"/>
    </edge>
    <edge id=":1724274140_0" function="internal">
        <lane id=":1724274140_0_0" index="0" speed="12.53" length="1.53" shape="1541.59,2464.19 1541.22,2463.92 1540.99,2463.72 1540.79,2463.48 1540.52,2463.12"/>
    </edge>
    <edge id=":1724274140_1" function="internal">
        <lane id=":1724274140_1_0" index="0" speed="16.67" length="0.51" shape="1543.12,2461.26 1543.21,2461.38 1543.28,2461.46 1543.36,2461.52 1543.48,2461.62"/>
    </edge>
    <edge id=":1724274152_0" function="internal">
        <lane id=":1724274152_0_0" index="0" speed="16.67" length="0.23" shape="1495.23,2399.76 1495.09,2399.57"/>
    </edge>
    <edge id=":1724274152_1" function="internal">
        <lane id=":1724274152_1_0" index="0" speed="16.67" length="0.31" shape="1497.65,2397.65 1497.83,2397.90"/>
    </edge>
    <edge id=":1724274170_0" function="internal">
        <lane id=":1724274170_0_0" index="0" speed="16.67" length="0.55" shape="2107.03,2528.34 2106.87,2528.31 2106.76,2528.30 2106.65,2528.30 2106.49,2528.32"/>
    </edge>
    <edge id=":1724274170_1" function="internal">
        <lane id=":1724274170_1_0" index="0" speed="10.96" length="1.64" shape="2106.03,2525.16 2106.51,2525.09 2106.85,2525.08 2107.18,2525.11 2107.65,2525.20"/>
    </edge>
    <edge id=":1724274175_0" function="internal">
        <lane id=":1724274175_0_0" index="0" speed="16.67" length="0.47" shape="1457.65,2349.73 1457.56,2349.62 1457.50,2349.55 1457.42,2349.49 1457.31,2349.40"/>
    </edge>
    <edge id=":1724274175_1" function="internal">
        <lane id=":1724274175_1_0" index="0" speed="15.53" length="1.42" shape="1459.20,2346.82 1459.54,2347.07 1459.76,2347.26 1459.95,2347.48 1460.20,2347.81"/>
    </edge>
    <edge id=":1724274186_0" function="internal">
        <lane id=":1724274186_0_0" index="0" speed="16.67" length="0.77" shape="1838.00,2464.83 1837.79,2464.76 1837.63,2464.73 1837.48,2464.73 1837.25,2464.76"/>
    </edge>
    <edge id=":1724274186_1" function="internal">
        <lane id=":1724274186_1_0" index="0" speed="7.96" length="2.31" shape="1836.79,2461.60 1837.47,2461.51 1837.94,2461.50 1838.40,2461.60 1839.05,2461.81"/>
    </edge>
    <edge id=":1724274204_0" function="internal">
        <lane id=":1724274204_0_0" index="0" speed="16.67" length="0.13" shape="1791.30,2471.46 1791.17,2471.48"/>
    </edge>
    <edge id=":1724274204_1" function="internal">
        <lane id=":1724274204_1_0" index="0" speed="16.67" length="0.39" shape="1790.46,2468.36 1790.84,2468.29"/>
    </edge>
    <edge id=":1724274206_0" function="internal">
        <lane id=":1724274206_0_0" index="0" speed="16.67" length="0.15" shape="1372.71,1568.64 1372.66,1568.64 1372.63,1568.65 1372.60,1568.65 1372.56,1568.66"/>
    </edge>
    <edge id=":1724274206_1" function="internal">
        <lane id=":1724274206_1_0" index="0" speed="16.67" length="0.45" shape="1371.85,1565.54 1371.98,1565.51 1372.07,1565.50 1372.16,1565.48 1372.29,1565.46"/>
    </edge>
    <edge id=":1724274208_0" function="internal">
        <lane id=":1724274208_0_0" index="0" speed="16.67" length="1.05" shape="1472.32,1555.33 1472.03,1555.44 1471.82,1555.50 1471.61,1555.54 1471.30,1555.58"/>
    </edge>
    <edge id=":1724274208_1" function="internal">
        <lane id=":1724274208_1_0" index="0" speed="16.67" length="0.35" shape="1470.88,1552.41 1470.99,1552.40 1471.06,1552.38 1471.13,1552.36 1471.22,1552.33"/>
    </edge>
    <edge id=":1724274210_0" function="internal">
        <lane id=":1724274210_0_0" index="0" speed="9.81" length="1.77" shape="1401.33,2307.00 1400.92,2306.67 1400.66,2306.42 1400.44,2306.13 1400.16,2305.69"/>
    </edge>
    <edge id=":1724274210_1" function="internal">
        <lane id=":1724274210_1_0" index="0" speed="16.67" length="0.59" shape="1402.90,2304.03 1403.00,2304.18 1403.07,2304.28 1403.16,2304.36 1403.29,2304.47"/>
    </edge>
    <edge id=":1724274213_0" function="internal">
        <lane id=":1724274213_0_0" index="0" speed="16.67" length="1.30" shape="1651.91,2019.52 1651.95,2019.90 1651.96,2020.16 1651.94,2020.43 1651.88,2020.81"/>
    </edge>
    <edge id=":1724274213_1" function="internal">
        <lane id=":1724274213_1_0" index="0" speed="16.67" length="0.43" shape="1648.72,2020.31 1648.74,2020.18 1648.75,2020.09 1648.74,2020.01 1648.73,2019.88"/>
    </edge>
    <edge id=":1724274215_0" function="internal">
        <lane id=":1724274215_0_0" index="0" speed="16.67" length="1.11" shape="1647.26,2050.10 1647.20,2050.43 1647.15,2050.65 1647.08,2050.87 1646.96,2051.17"/>
    </edge>
    <edge id=":1724274215_1" function="internal">
        <lane id=":1724274215_1_0" index="0" speed="16.67" length="0.37" shape="1644.00,2049.96 1644.04,2049.86 1644.06,2049.79 1644.08,2049.71 1644.10,2049.61"/>
    </edge>
    <edge id=":1724274216_0" function="internal">
        <lane id=":1724274216_0_0" index="0" speed="6.31" length="5.00" shape="1725.43,1780.98 1725.67,1782.25 1725.57,1783.45 1725.15,1784.58 1724.39,1785.63"/>
    </edge>
    <edge id=":1724274216_1" function="internal">
        <lane id=":1724274216_1_0" index="0" speed="4.02" length="1.67" shape="1722.02,1783.47 1722.28,1783.12 1722.42,1782.75 1722.45,1782.35 1722.37,1781.92"/>
    </edge>
    <edge id=":1724274220_0" function="internal">
        <lane id=":1724274220_0_0" index="0" speed="16.67" length="0.41" shape="1329.03,1705.81 1328.93,1705.74 1328.86,1705.69 1328.79,1705.66 1328.68,1705.62"/>
    </edge>
    <edge id=":1724274220_1" function="internal">
        <lane id=":1724274220_1_0" index="0" speed="16.67" length="1.22" shape="1329.79,1702.62 1330.13,1702.75 1330.36,1702.85 1330.57,1702.98 1330.87,1703.18"/>
    </edge>
    <edge id=":1724274246_0" function="internal">
        <lane id=":1724274246_0_0" index="0" speed="16.67" length="1.13" shape="1631.78,2088.28 1631.65,2088.59 1631.55,2088.79 1631.43,2088.99 1631.24,2089.26"/>
    </edge>
    <edge id=":1724274246_1" function="internal">
        <lane id=":1724274246_1_0" index="0" speed="16.67" length="0.38" shape="1628.64,2087.39 1628.70,2087.30 1628.74,2087.24 1628.78,2087.17 1628.82,2087.07"/>
    </edge>
    <edge id=":1724274264_0" function="internal">
        <lane id=":1724274264_0_0" index="0" speed="16.67" length="0.65" shape="1450.49,2189.47 1450.30,2189.50 1450.18,2189.53 1450.06,2189.59 1449.89,2189.68"/>
    </edge>
    <edge id=":1724274264_1" function="internal">
        <lane id=":1724274264_1_0" index="0" speed="8.97" length="1.94" shape="1448.25,2186.94 1448.74,2186.65 1449.11,2186.48 1449.49,2186.39 1450.06,2186.30"/>
    </edge>
    <edge id=":1724274277_0" function="internal">
        <lane id=":1724274277_0_0" index="0" speed="16.67" length="0.30" shape="1433.39,2331.90 1433.14,2331.71"/>
    </edge>
    <edge id=":1724274277_1" function="internal">
        <lane id=":1724274277_1_0" index="0" speed="16.67" length="0.21" shape="1435.11,2329.19 1435.27,2329.31"/>
    </edge>
    <edge id=":1724274278_0" function="internal">
        <lane id=":1724274278_0_0" index="0" speed="8.06" length="2.26" shape="1591.80,1511.07 1591.34,1511.55 1590.98,1511.85 1590.57,1512.06 1589.95,1512.30"/>
    </edge>
    <edge id=":1724274278_1" function="internal">
        <lane id=":1724274278_1_0" index="0" speed="16.67" length="0.75" shape="1588.85,1509.29 1589.06,1509.21 1589.19,1509.14 1589.31,1509.05 1589.47,1508.89"/>
    </edge>
    <edge id=":1724274280_0" function="internal">
        <lane id=":1724274280_0_0" index="0" speed="16.67" length="0.82" shape="1393.61,2243.18 1393.46,2243.37 1393.37,2243.51 1393.32,2243.67 1393.27,2243.91"/>
    </edge>
    <edge id=":1724274280_1" function="internal">
        <lane id=":1724274280_1_0" index="0" speed="7.70" length="2.46" shape="1390.12,2243.31 1390.27,2242.60 1390.43,2242.12 1390.70,2241.69 1391.15,2241.13"/>
    </edge>
    <edge id=":1724274281_0" function="internal">
        <lane id=":1724274281_0_0" index="0" speed="6.85" length="3.44" shape="1398.47,1752.97 1397.46,1753.04 1396.75,1752.97 1396.10,1752.68 1395.26,1752.13"/>
    </edge>
    <edge id=":1724274281_1" function="internal">
        <lane id=":1724274281_1_0" index="0" speed="4.31" length="1.15" shape="1397.09,1749.51 1397.37,1749.69 1397.59,1749.79 1397.83,1749.81 1398.16,1749.79"/>
    </edge>
    <edge id=":1724274283_0" function="internal">
        <lane id=":1724274283_0_0" index="0" speed="6.80" length="3.56" shape="1384.48,2279.66 1383.97,2278.75 1383.73,2278.05 1383.71,2277.32 1383.88,2276.29"/>
    </edge>
    <edge id=":1724274283_1" function="internal">
        <lane id=":1724274283_1_0" index="0" speed="4.28" length="1.19" shape="1387.02,2276.88 1386.96,2277.23 1386.97,2277.47 1387.05,2277.70 1387.22,2278.01"/>
    </edge>
    <edge id=":1724274305_0" function="internal">
        <lane id=":1724274305_0_0" index="0" speed="16.67" length="0.16" shape="1294.37,1586.54 1294.32,1586.55 1294.29,1586.56 1294.26,1586.57 1294.21,1586.59"/>
    </edge>
    <edge id=":1724274305_1" function="internal">
        <lane id=":1724274305_1_0" index="0" speed="16.67" length="0.49" shape="1293.18,1583.56 1293.32,1583.51 1293.42,1583.48 1293.51,1583.46 1293.65,1583.42"/>
    </edge>
    <edge id=":1724274307_0" function="internal">
        <lane id=":1724274307_0_0" index="0" speed="7.01" length="3.17" shape="1690.70,1431.22 1690.53,1432.13 1690.32,1432.75 1689.94,1433.28 1689.28,1433.94"/>
    </edge>
    <edge id=":1724274307_1" function="internal">
        <lane id=":1724274307_1_0" index="0" speed="4.40" length="1.06" shape="1687.06,1431.64 1687.28,1431.42 1687.41,1431.24 1687.48,1431.03 1687.53,1430.73"/>
    </edge>
    <edge id=":1724274308_0" function="internal">
        <lane id=":1724274308_0_0" index="0" speed="16.67" length="0.70" shape="1636.10,1908.14 1636.07,1907.93 1636.06,1907.79 1636.06,1907.64 1636.07,1907.44"/>
    </edge>
    <edge id=":1724274308_1" function="internal">
        <lane id=":1724274308_1_0" index="0" speed="16.67" length="0.23" shape="1639.27,1907.54 1639.26,1907.61 1639.27,1907.66 1639.27,1907.71 1639.28,1907.78"/>
    </edge>
    <edge id=":1724274310_0" function="internal">
        <lane id=":1724274310_0_0" index="0" speed="7.90" length="2.34" shape="1945.65,2551.38 1944.96,2551.47 1944.49,2551.47 1944.02,2551.37 1943.36,2551.15"/>
    </edge>
    <edge id=":1724274310_1" function="internal">
        <lane id=":1724274310_1_0" index="0" speed="16.67" length="0.78" shape="1944.43,2548.14 1944.65,2548.21 1944.81,2548.24 1944.97,2548.24 1945.19,2548.21"/>
    </edge>
    <edge id=":1724274326_0" function="internal">
        <lane id=":1724274326_0_0" index="0" speed="7.37" length="2.73" shape="1920.60,2543.08 1919.85,2542.80 1919.36,2542.53 1918.95,2542.15 1918.44,2541.53"/>
    </edge>
    <edge id=":1724274326_1" function="internal">
        <lane id=":1724274326_1_0" index="0" speed="16.67" length="0.91" shape="1920.95,2539.55 1921.12,2539.75 1921.26,2539.88 1921.42,2539.97 1921.67,2540.06"/>
    </edge>
    <edge id=":1724274328_0" function="internal">
        <lane id=":1724274328_0_0" index="0" speed="7.58" length="2.55" shape="1678.81,1444.03 1678.26,1444.55 1677.84,1444.85 1677.35,1445.05 1676.63,1445.24"/>
    </edge>
    <edge id=":1724274328_1" function="internal">
        <lane id=":1724274328_1_0" index="0" speed="16.67" length="0.85" shape="1675.86,1442.13 1676.10,1442.07 1676.27,1442.00 1676.41,1441.90 1676.59,1441.73"/>
    </edge>
    <edge id=":1724274337_0" function="internal">
        <lane id=":1724274337_0_0" index="0" speed="16.67" length="0.40" shape="2349.88,2529.65 2349.78,2529.59 2349.71,2529.56 2349.63,2529.53 2349.52,2529.50"/>
    </edge>
    <edge id=":1724274337_1" function="internal">
        <lane id=":1724274337_1_0" index="0" speed="16.67" length="1.20" shape="2350.38,2526.41 2350.72,2526.51 2350.95,2526.59 2351.17,2526.70 2351.48,2526.88"/>
    </edge>
    <edge id=":1724274352_0" function="internal">
        <lane id=":1724274352_0_0" index="0" speed="7.29" length="2.81" shape="1245.47,1663.05 1244.87,1662.48 1244.51,1662.03 1244.28,1661.50 1244.05,1660.71"/>
    </edge>
    <edge id=":1724274352_1" function="internal">
        <lane id=":1724274352_1_0" index="0" speed="16.67" length="0.94" shape="1247.15,1659.90 1247.23,1660.16 1247.30,1660.34 1247.42,1660.49 1247.62,1660.68"/>
    </edge>
    <edge id=":1724274357_0" function="internal">
        <lane id=":1724274357_0_0" index="0" speed="16.67" length="0.92" shape="1865.72,2474.67 1865.54,2474.46 1865.40,2474.33 1865.24,2474.24 1864.98,2474.15"/>
    </edge>
    <edge id=":1724274357_1" function="internal">
        <lane id=":1724274357_1_0" index="0" speed="7.33" length="2.77" shape="1866.03,2471.12 1866.79,2471.40 1867.29,2471.67 1867.71,2472.06 1868.23,2472.69"/>
    </edge>
    <edge id=":2163156641_0" function="internal">
        <lane id=":2163156641_0_0" index="0" speed="13.89" length="0.72" shape="40.97,843.16 40.95,842.95 40.92,842.80 40.86,842.67 40.76,842.49"/>
    </edge>
    <edge id=":2163156641_1" function="internal">
        <lane id=":2163156641_1_0" index="0" speed="8.30" length="2.15" shape="43.52,840.87 43.84,841.42 44.01,841.83 44.10,842.26 44.16,842.89"/>
    </edge>
    <edge id=":2163156642_0" function="internal">
        <lane id=":2163156642_0_0" index="0" speed="8.23" length="2.18" shape="44.98,852.65 45.02,853.29 45.00,853.74 44.90,854.17 44.67,854.77"/>
    </edge>
    <edge id=":2163156642_1" function="internal">
        <lane id=":2163156642_1_0" index="0" speed="13.89" length="0.73" shape="41.69,853.62 41.76,853.42 41.80,853.28 41.80,853.13 41.79,852.91"/>
    </edge>
    <edge id=":2163156643_0" function="internal">
        <lane id=":2163156643_0_0" index="0" speed="9.12" length="1.91" shape="-1.37,781.39 -1.51,780.84 -1.58,780.46 -1.57,780.07 -1.51,779.51"/>
    </edge>
    <edge id=":2163156643_1" function="internal">
        <lane id=":2163156643_1_0" index="0" speed="13.89" length="0.64" shape="1.67,779.90 1.65,780.08 1.64,780.21 1.66,780.34 1.71,780.52"/>
    </edge>
    <edge id=":2163156698_0" function="internal">
        <lane id=":2163156698_0_0" index="0" speed="13.89" length="0.33" shape="35.61,833.67 35.56,833.59 35.52,833.53 35.48,833.48 35.42,833.41"/>
    </edge>
    <edge id=":2163156698_1" function="internal">
        <lane id=":2163156698_1_0" index="0" speed="13.89" length="0.98" shape="37.80,831.27 37.99,831.48 38.11,831.64 38.23,831.81 38.37,832.06"/>
    </edge>
    <edge id=":2163156799_0" function="internal">
        <lane id=":2163156799_0_0" index="0" speed="3.65" length="4.67" shape="43.55,857.68 42.38,858.51 41.49,858.59 40.88,857.93 40.57,856.52"/>
    </edge>
    <edge id=":2242428472_0" function="internal">
        <lane id=":2242428472_0_0" index="0" speed="16.67" length="0.10" shape="1611.52,1141.00 1611.59,1141.03"/>
    </edge>
    <edge id=":2242428472_1" function="internal">
        <lane id=":2242428472_1_0" index="0" speed="16.67" length="0.10" shape="1612.68,1138.02 1612.75,1138.05"/>
    </edge>
    <edge id=":2242429067_0" function="internal">
        <lane id=":2242429067_0_0" index="0" speed="13.89" length="0.30" shape="1577.85,364.40 1577.68,364.15"/>
    </edge>
    <edge id=":2242429067_1" function="internal">
        <lane id=":2242429067_1_0" index="0" speed="13.89" length="0.30" shape="1580.28,362.29 1580.46,362.54"/>
    </edge>
    <edge id=":3165874997_0" function="internal">
        <lane id=":3165874997_0_0" index="0" speed="13.89" length="0.95" shape="1456.77,1004.24 1456.59,1004.03 1456.44,1003.91 1456.27,1003.82 1456.00,1003.74"/>
    </edge>
    <edge id=":3165874997_1" function="internal">
        <lane id=":3165874997_1_0" index="0" speed="7.25" length="2.85" shape="1456.91,1000.67 1457.70,1000.92 1458.23,1001.18 1458.68,1001.56 1459.23,1002.19"/>
    </edge>
    <edge id=":3165874998_0" function="internal">
        <lane id=":3165874998_0_0" index="0" speed="13.41" length="9.50" shape="1543.22,1108.06 1540.68,1106.91 1538.80,1106.41 1536.85,1106.37 1534.05,1106.65"/>
    </edge>
    <edge id=":3165874998_1" function="internal">
        <lane id=":3165874998_1_0" index="0" speed="10.51" length="4.67" shape="1543.22,1108.06 1540.87,1106.45 1539.72,1105.05"/>
    </edge>
    <edge id=":3165874998_2" function="internal">
        <lane id=":3165874998_2_0" index="0" speed="3.65" length="2.34" shape="1543.22,1108.06 1542.49,1106.81 1542.48,1105.92"/>
    </edge>
    <edge id=":3165874998_9" function="internal">
        <lane id=":3165874998_9_0" index="0" speed="10.51" length="8.35" shape="1539.72,1105.05 1538.97,1104.14 1537.53,1101.13 1536.55,1097.42"/>
    </edge>
    <edge id=":3165874998_10" function="internal">
        <lane id=":3165874998_10_0" index="0" speed="3.65" length="2.34" shape="1542.48,1105.92 1543.19,1105.37 1544.62,1105.18"/>
    </edge>
    <edge id=":3165874998_3" function="internal">
        <lane id=":3165874998_3_0" index="0" speed="9.28" length="10.02" shape="1539.70,1096.84 1540.46,1099.81 1541.53,1102.19 1542.92,1103.98 1544.62,1105.18"/>
    </edge>
    <edge id=":3165874998_4" function="internal">
        <lane id=":3165874998_4_0" index="0" speed="7.51" length="13.08" shape="1539.70,1096.84 1539.97,1100.84 1539.12,1103.80 1537.15,1105.74 1534.05,1106.65"/>
    </edge>
    <edge id=":3165874998_5" function="internal">
        <lane id=":3165874998_5_0" index="0" speed="3.65" length="4.67" shape="1539.70,1096.84 1539.13,1098.17 1538.41,1098.70 1537.56,1098.46 1536.55,1097.42"/>
    </edge>
    <edge id=":3165874998_6" function="internal">
        <lane id=":3165874998_6_0" index="0" speed="5.90" length="7.66" shape="1533.71,1103.47 1535.34,1102.93 1536.36,1101.75 1536.76,1099.91 1536.55,1097.42"/>
    </edge>
    <edge id=":3165874998_7" function="internal">
        <lane id=":3165874998_7_0" index="0" speed="14.57" length="11.27" shape="1533.71,1103.47 1536.88,1103.20 1539.34,1103.30 1541.72,1103.92 1544.62,1105.18"/>
    </edge>
    <edge id=":3165874998_8" function="internal">
        <lane id=":3165874998_8_0" index="0" speed="3.65" length="2.34" shape="1533.71,1103.47 1534.99,1104.13 1535.47,1104.89"/>
    </edge>
    <edge id=":3165874998_11" function="internal">
        <lane id=":3165874998_11_0" index="0" speed="3.65" length="2.34" shape="1535.47,1104.89 1535.16,1105.73 1534.05,1106.65"/>
    </edge>
    <edge id=":3165874999_0" function="internal">
        <lane id=":3165874999_0_0" index="0" speed="16.67" length="0.10" shape="1543.43,1108.18 1543.44,1108.16"/>
    </edge>
    <edge id=":3165874999_1" function="internal">
        <lane id=":3165874999_1_0" index="0" speed="16.67" length="0.57" shape="1544.74,1105.24 1544.89,1105.31 1545.00,1105.37 1545.09,1105.44 1545.23,1105.53"/>
    </edge>
    <edge id=":3165875000_0" function="internal">
        <lane id=":3165875000_0_0" index="0" speed="16.67" length="1.21" shape="1569.54,1125.81 1569.20,1125.69 1568.97,1125.59 1568.76,1125.47 1568.46,1125.27"/>
    </edge>
    <edge id=":3165875000_1" function="internal">
        <lane id=":3165875000_1_0" index="0" speed="16.67" length="0.40" shape="1570.27,1122.62 1570.37,1122.69 1570.44,1122.73 1570.51,1122.76 1570.62,1122.81"/>
    </edge>
    <edge id=":3165875001_0" function="internal">
        <lane id=":3165875001_0_0" index="0" speed="16.67" length="0.42" shape="1671.86,1171.07 1671.75,1171.02 1671.67,1170.98 1671.60,1170.93 1671.49,1170.87"/>
    </edge>
    <edge id=":3165875001_1" function="internal">