<nodes>
	<node id="1724274106" x="621428.8930" y="4571152.1983" z="0.0000" type="priority" />
	<node id="898089802" x="622996.9252" y="4569298.8113" z="0.0000" type="priority" />
	<node id="898090912" x="621919.1431" y="4569453.2420" z="0.0000" type="priority" />
	<node id="898090916" x="624647.9008" y="4570288.8459" z="0.0000" type="priority" />
	<node id="898089928" x="623587.1679" y="4569785.7808" z="0.0000" type="priority" />
	<node id="898090917" x="620087.9928" y="4569264.0938" z="0.0000" type="priority" />
	<node id="898089809" x="623738.6000" y="4569956.2655" z="0.0000" type="priority" />
	<node id="1724274220" x="621130.5709" y="4570354.5559" z="0.0000" type="priority" />
	<node id="1724274216" x="621525.3922" y="4570433.4921" z="0.0000" type="priority" />
	<node id="1724274337" x="622151.2901" y="4571178.3580" z="0.0000" type="priority" />
	<node id="898089941" x="622987.9142" y="4569572.1003" z="0.0000" type="priority" />
	<node id="3165874997" x="621258.3349" y="4569652.7706" z="0.0000" type="priority" />
	<node id="898089823" x="623304.5064" y="4569850.2799" z="0.0000" type="priority" />
	<node id="898089944" x="621389.7416" y="4569633.8184" z="0.0000" type="priority" />
	<node id="898090803" x="623632.3795" y="4569797.5432" z="0.0000" type="priority" />
	<node id="898089815" x="621656.8860" y="4569488.3854" z="0.0000" type="priority" />
	<node id="898090921" x="623429.4499" y="4569772.9971" z="0.0000" type="priority" />
	<node id="898090927" x="622387.7858" y="4569138.5087" z="0.0000" type="priority" />
	<node id="898090807" x="623041.3382" y="4569591.3494" z="0.0000" type="priority" />
	<node id="898090925" x="621338.7450" y="4569745.6058" z="0.0000" type="priority" />
	<node id="1724274210" x="621202.7955" y="4570955.6644" z="0.0000" type="priority" />
	<node id="1724274215" x="621446.5728" y="4570700.5178" z="0.0000" type="priority" />
	<node id="1724274213" x="621451.3227" y="4570670.4247" z="0.0000" type="priority" />
	<node id="1724274208" x="621272.3985" y="4570204.2475" z="0.0000" type="priority" />
	<node id="1724274328" x="621478.0360" y="4570093.7749" z="0.0000" type="priority" />
	<node id="1724274206" x="621173.3042" y="4570217.3656" z="0.0000" type="priority" />
	<node id="1724274326" x="621721.2216" y="4571191.5565" z="0.0000" type="priority" />
	<node id="898091908" x="621078.0383" y="4568650.2950" z="0.0000" type="priority" />
	<node id="898089833" x="624682.3948" y="4570299.9871" z="0.0000" type="priority" />
	<node id="898089946" x="622409.3171" y="4569153.6407" z="0.0000" type="priority" />
	<node id="898090935" x="624061.1510" y="4570030.8342" z="0.0000" type="priority" />
	<node id="898091902" x="621319.8271" y="4569190.9165" z="0.0000" type="priority" />
	<node id="3165874999" x="621345.0898" y="4569757.0166" z="0.0000" type="priority" />
	<node id="3165874998" x="621340.4273" y="4569754.7511" z="0.0000" type="priority" />
	<node id="898089828" x="621019.0653" y="4569354.3702" z="0.0000" type="priority" />
	<node id="898089829" x="621945.7878" y="4569488.2253" z="0.0000" type="priority" />
	<node id="898090815" x="622557.7806" y="4569244.0924" z="0.0000" type="priority" />
	<node id="898090936" x="619802.3969" y="4569418.8631" z="0.0000" type="priority" />
	<node id="898091904" x="622518.9292" y="4569247.4359" z="0.0000" type="priority" />
	<node id="898090930" x="621391.7109" y="4569060.8542" z="0.0000" type="priority" />
	<node id="1724274204" x="621591.8966" y="4571120.1858" z="0.0000" type="priority" />
	<node id="898089842" x="619961.5586" y="4569314.7120" z="0.0000" type="priority" />
	<node id="898090945" x="622111.0332" y="4569317.5361" z="0.0000" type="priority" />
	<node id="898090704" x="622959.4018" y="4569337.6002" z="0.0000" type="priority" />
	<node id="898090943" x="621058.4101" y="4569467.2964" z="0.0000" type="priority" />
	<node id="898090828" x="619926.2850" y="4569452.3758" z="0.0000" type="priority" />
	<node id="898090706" x="621370.1883" y="4568999.8618" z="0.0000" type="priority" />
	<node id="898090827" x="624349.7200" y="4570206.0050" z="0.0000" type="priority" />
	<node id="1724274310" x="621745.5956" y="4571200.2046" z="0.0000" type="priority" />
	<node id="898090941" x="622774.6406" y="4569089.6122" z="0.0000" type="priority" />
	<node id="898090940" x="621868.2164" y="4569337.2293" z="0.0000" type="priority" />
	<node id="1724274307" x="621489.9060" y="4570082.3351" z="0.0000" type="priority" />
	<node id="898092062" x="621841.4671" y="4569328.4524" z="0.0000" type="priority" />
	<node id="1724274305" x="621094.8063" y="4570235.3142" z="0.0000" type="priority" />
	<node id="898092067" x="622075.7637" y="4569342.1527" z="0.0000" type="priority" />
	<node id="898091098" x="623761.0916" y="4570003.2899" z="0.0000" type="priority" />
	<node id="898092066" x="621237.0761" y="4568761.4390" z="0.0000" type="priority" />
	<node id="898092064" x="622785.5401" y="4569138.8807" z="0.0000" type="priority" />
	<node id="1724274308" x="621438.6148" y="4570558.0182" z="0.0000" type="priority" />
	<node id="898089900" x="622042.3609" y="4569425.3244" z="0.0000" type="priority" />
	<node id="898092084" x="623674.9293" y="4569832.8036" z="0.0000" type="priority" />
	<node id="898092079" x="624867.2870" y="4570368.9023" z="0.0000" type="priority" />
	<node id="898092094" x="621339.6769" y="4569116.0666" z="0.0000" type="priority" />
	<node id="898092098" x="622481.4427" y="4569189.6135" z="0.0000" type="priority" />
	<node id="898090909" x="623339.6105" y="4569922.5033" z="0.0000" type="priority" />
	<node id="898090907" x="621629.5397" y="4569525.3521" z="0.0000" type="priority" />
	<node id="2163156641" x="619843.4611" y="4569492.5988" z="0.0000" type="priority" />
	<node id="898092090" x="623096.4484" y="4569609.9612" z="0.0000" type="priority" />
	<node id="2163156642" x="619844.3992" y="4569503.8081" z="0.0000" type="priority" />
	<node id="898089801" x="621279.9292" y="4569769.6890" z="0.0000" type="priority" />
	<node id="2163156643" x="619800.9547" y="4569430.6328" z="0.0000" type="priority" />
	<node id="898089916" x="624803.1392" y="4570328.2665" z="0.0000" type="priority" />
	<node id="898090903" x="623862.3139" y="4570022.2260" z="0.0000" type="priority" />
	<node id="898091050" x="622618.0193" y="4569234.5576" z="0.0000" type="priority" />
	<node id="898091290" x="619923.5721" y="4569469.5437" z="0.0000" type="priority" />
	<node id="898092023" x="620060.2179" y="4569291.9530" z="0.0000" type="priority" />
	<node id="898091169" x="622798.0374" y="4569197.7266" z="0.0000" type="priority" />
	<node id="898091047" x="621183.5377" y="4569188.6450" z="0.0000" type="priority" />
	<node id="898091168" x="621813.0560" y="4569348.8542" z="0.0000" type="priority" />
	<node id="898091288" x="623366.1288" y="4569945.6741" z="0.0000" type="priority" />
	<node id="898090199" x="622005.2881" y="4569497.5518" z="0.0000" type="priority" />
	<node id="898092017" x="624752.0868" y="4570315.3969" z="0.0000" type="priority" />
	<node id="898092138" x="620374.9120" y="4568973.8879" z="0.0000" type="priority" />
	<node id="898090093" x="621420.2795" y="4568754.8325" z="0.0000" type="priority" />
	<node id="898091181" x="622055.4454" y="4569379.5690" z="0.0000" type="priority" />
	<node id="3165881667" x="620039.5238" y="4569297.9414" z="0.0000" type="priority" />
	<node id="898091187" x="624698.5596" y="4570310.0369" z="0.0000" type="priority" />
	<node id="3165881668" x="619972.3926" y="4569308.0944" z="0.0000" type="priority" />
	<node id="3165881669" x="619918.7231" y="4569380.4577" z="0.0000" type="priority" />
	<node id="898090095" x="622249.3821" y="4569087.4305" z="0.0000" type="priority" />
	<node id="898092027" x="623392.1642" y="4569738.4939" z="0.0000" type="priority" />
	<node id="898090088" x="621272.6910" y="4569681.1945" z="0.0000" type="priority" />
	<node id="898090089" x="622987.4266" y="4569241.1263" z="0.0000" type="priority" />
	<node id="3165881670" x="619913.0464" y="4569401.0526" z="0.0000" type="priority" />
	<node id="3165881671" x="619926.1904" y="4569461.1582" z="0.0000" type="priority" />
	<node id="3165881672" x="619914.1536" y="4569474.1747" z="0.0000" type="priority" />
	<node id="898092040" x="621384.6788" y="4569683.6510" z="0.0000" type="priority" />
	<node id="898091070" x="623400.1392" y="4569905.5062" z="0.0000" type="priority" />
	<node id="898091077" x="621245.0698" y="4569648.8627" z="0.0000" type="priority" />
	<node id="898091198" x="623491.3283" y="4569829.5732" z="0.0000" type="priority" />
	<node id="898092042" x="622350.5142" y="4569107.6760" z="0.0000" type="priority" />
	<node id="898091067" x="621194.7866" y="4568699.4349" z="0.0000" type="priority" />
	<node id="1724273993" x="621439.9287" y="4570518.4728" z="0.0000" type="priority" />
	<node id="898092051" x="619805.0696" y="4569445.3258" z="0.0000" type="priority" />
	<node id="898091082" x="622937.5720" y="4569241.0610" z="0.0000" type="priority" />
	<node id="898091088" x="622232.6089" y="4569113.2456" z="0.0000" type="priority" />
	<node id="898092049" x="624233.4621" y="4570111.0676" z="0.0000" type="priority" />
	<node id="898092047" x="620855.0762" y="4568845.8118" z="0.0000" type="priority" />
	<node id="1724273981" x="621226.5278" y="4570852.6499" z="0.0000" type="priority" />
	<node id="898091370" x="622910.1166" y="4569403.0649" z="0.0000" type="priority" />
	<node id="898091374" x="621287.8878" y="4568905.3183" z="0.0000" type="priority" />
	<node id="898091495" x="624889.3067" y="4570374.6109" z="0.0000" type="priority" />
	<node id="898091250" x="622185.9543" y="4569291.8087" z="0.0000" type="priority" />
	<node id="1724273979" x="621520.5026" y="4569879.7461" z="0.0000" type="priority" />
	<node id="898091125" x="624562.6511" y="4570286.6079" z="0.0000" type="priority" />
	<node id="898091246" x="622792.3959" y="4569055.3750" z="0.0000" type="priority" />
	<node id="898090036" x="621327.5638" y="4569174.1659" z="0.0000" type="priority" />
	<node id="898090275" x="624848.6309" y="4570357.5878" z="0.0000" type="priority" />
	<node id="898090276" x="620176.2940" y="4568990.9266" z="0.0000" type="priority" />
	<node id="898091001" x="624258.0535" y="4570128.1455" z="0.0000" type="priority" />
	<node id="898090039" x="622661.3943" y="4569251.1691" z="0.0000" type="priority" />
	<node id="1724273972" x="621068.9331" y="4570331.5860" z="0.0000" type="priority" />
	<node id="898090158" x="623393.8943" y="4569870.6190" z="0.0000" type="priority" />
	<node id="898091248" x="621336.5280" y="4568777.3111" z="0.0000" type="priority" />
	<node id="898090170" x="621381.8150" y="4569016.1580" z="0.0000" type="priority" />
	<node id="898090291" x="623071.0933" y="4569600.1261" z="0.0000" type="priority" />
	<node id="898090053" x="621059.9347" y="4568655.5463" z="0.0000" type="priority" />
	<node id="898091022" x="622824.8305" y="4569144.3191" z="0.0000" type="priority" />
	<node id="898091263" x="623609.1650" y="4569788.0425" z="0.0000" type="priority" />
	<node id="898092109" x="624406.8028" y="4570228.8585" z="0.0000" type="priority" />
	<node id="898090168" x="622941.2313" y="4569356.7271" z="0.0000" type="priority" />
	<node id="898090286" x="623654.7289" y="4569813.5814" z="0.0000" type="priority" />
	<node id="898091497" x="620095.6355" y="4569125.9634" z="0.0000" type="priority" />
	<node id="898091375" x="624966.8984" y="4570386.0940" z="0.0000" type="priority" />
	<node id="898091138" x="623361.9678" y="4569735.5385" z="0.0000" type="priority" />
	<node id="898091259" x="620150.1252" y="4569022.9208" z="0.0000" type="priority" />
	<node id="898092105" x="621016.8520" y="4568716.6845" z="0.0000" type="priority" />
	<node id="898090060" x="623343.0153" y="4569941.5841" z="0.0000" type="priority" />
	<node id="898091270" x="622536.5629" y="4569250.1760" z="0.0000" type="priority" />
	<node id="898092122" x="622910.8822" y="4569238.7222" z="0.0000" type="priority" />
	<node id="1724273958" x="621340.3345" y="4570388.0474" z="0.0000" type="priority" />
	<node id="898090178" x="624003.2872" y="4570009.4139" z="0.0000" type="priority" />
	<node id="898091026" x="621408.0100" y="4568736.8597" z="0.0000" type="priority" />
	<node id="898091268" x="621299.6026" y="4569197.7975" z="0.0000" type="priority" />
	<node id="898091389" x="619822.5756" y="4569466.0027" z="0.0000" type="priority" />
	<node id="898091146" x="621289.4626" y="4569771.7691" z="0.0000" type="priority" />
	<node id="898091266" x="623014.7452" y="4569581.8712" z="0.0000" type="priority" />
	<node id="898091387" x="623832.0418" y="4570028.7068" z="0.0000" type="priority" />
	<node id="898092112" x="619914.7704" y="4569413.3742" z="0.0000" type="priority" />
	<node id="898091028" x="622220.6324" y="4569212.6568" z="0.0000" type="priority" />
	<node id="898091149" x="622316.7170" y="4569094.4479" z="0.0000" type="priority" />
	<node id="898091160" x="623949.5351" y="4570007.2762" z="0.0000" type="priority" />
	<node id="898090197" x="621057.5532" y="4569418.0869" z="0.0000" type="priority" />
	<node id="898090194" x="623339.1975" y="4569882.6288" z="0.0000" type="priority" />
	<node id="898091042" x="623121.0416" y="4569621.7379" z="0.0000" type="priority" />
	<node id="898090189" x="621712.7178" y="4569446.5649" z="0.0000" type="priority" />
	<node id="898092125" x="622213.9854" y="4569259.1865" z="0.0000" type="priority" />
	<node id="898091035" x="620217.9603" y="4568974.4022" z="0.0000" type="priority" />
	<node id="898092124" x="621371.0876" y="4568745.0167" z="0.0000" type="priority" />
	<node id="898091397" x="621744.5564" y="4569411.5615" z="0.0000" type="priority" />
	<node id="898092002" x="621730.4343" y="4569429.3154" z="0.0000" type="priority" />
	<node id="898092009" x="622023.1355" y="4569487.5234" z="0.0000" type="priority" />
	<node id="898091039" x="621427.4777" y="4569568.6176" z="0.0000" type="priority" />
	<node id="898092006" x="623342.6034" y="4569894.2359" z="0.0000" type="priority" />
	<node id="898090118" x="621588.7800" y="4569552.7665" z="0.0000" type="priority" />
	<node id="898091328" x="621475.3957" y="4569569.0844" z="0.0000" type="priority" />
	<node id="898090354" x="620345.5633" y="4568975.1791" z="0.0000" type="priority" />
	<node id="898091202" x="622897.0966" y="4569454.5947" z="0.0000" type="priority" />
	<node id="898091565" x="621389.2783" y="4568734.5483" z="0.0000" type="priority" />
	<node id="898090113" x="623691.5740" y="4569854.1865" z="0.0000" type="priority" />
	<node id="898090234" x="621378.5445" y="4569692.2661" z="0.0000" type="priority" />
	<node id="898091685" x="623352.1780" y="4569749.5871" z="0.0000" type="priority" />
	<node id="898090231" x="622911.7133" y="4569506.9247" z="0.0000" type="priority" />
	<node id="898090595" x="624913.2224" y="4570377.2427" z="0.0000" type="priority" />
	<node id="898090479" x="623450.4830" y="4569792.5660" z="0.0000" type="priority" />
	<node id="898091446" x="622369.0412" y="4569122.0910" z="0.0000" type="priority" />
	<node id="898090236" x="622334.1388" y="4569099.8492" z="0.0000" type="priority" />
	<node id="898091445" x="621385.8879" y="4569670.9448" z="0.0000" type="priority" />
	<node id="898091566" x="622219.5893" y="4569234.8495" z="0.0000" type="priority" />
	<node id="898090493" x="622261.2049" y="4569081.9656" z="0.0000" type="priority" />
	<node id="898091340" x="621116.5293" y="4569232.5045" z="0.0000" type="priority" />
	<node id="898090250" x="624207.3345" y="4570095.6293" z="0.0000" type="priority" />
	<node id="898090371" x="622729.3003" y="4569298.7336" z="0.0000" type="priority" />
	<node id="898091580" x="621417.6134" y="4569582.3342" z="0.0000" type="priority" />
	<node id="898090366" x="623171.0141" y="4569730.9700" z="0.0000" type="priority" />
	<node id="898091212" x="621406.7264" y="4569598.5879" z="0.0000" type="priority" />
	<node id="898090363" x="621504.4284" y="4569576.5655" z="0.0000" type="priority" />
	<node id="898090484" x="621339.4528" y="4569735.8230" z="0.0000" type="priority" />
	<node id="898091331" x="623263.7697" y="4569829.0671" z="0.0000" type="priority" />
	<node id="898091215" x="622454.2622" y="4569171.6099" z="0.0000" type="priority" />
	<node id="898091110" x="623331.1733" y="4569870.6324" z="0.0000" type="priority" />
	<node id="898090021" x="621457.0605" y="4569563.2258" z="0.0000" type="priority" />
	<node id="898090263" x="621827.6738" y="4569336.5502" z="0.0000" type="priority" />
	<node id="898091470" x="621855.3014" y="4569327.9068" z="0.0000" type="priority" />
	<node id="898090497" x="620713.7329" y="4568890.2174" z="0.0000" type="priority" />
	<node id="898090377" x="624530.3060" y="4570277.1698" z="0.0000" type="priority" />
	<node id="898091465" x="624031.1968" y="4570018.6629" z="0.0000" type="priority" />
	<node id="898090132" x="623231.7807" y="4569803.8495" z="0.0000" type="priority" />
	<node id="898090495" x="621390.5509" y="4569080.1576" z="0.0000" type="priority" />
	<node id="898091343" x="622684.1030" y="4569265.9886" z="0.0000" type="priority" />
	<node id="898091585" x="623201.3289" y="4569771.4619" z="0.0000" type="priority" />
	<node id="898090138" x="620983.8677" y="4569248.9535" z="0.0000" type="priority" />
	<node id="898091349" x="624489.9411" y="4570261.4867" z="0.0000" type="priority" />
	<node id="898090139" x="622794.5636" y="4569299.2797" z="0.0000" type="priority" />
	<node id="898091106" x="621542.6574" y="4569570.2080" z="0.0000" type="priority" />
	<node id="898090015" x="624936.3804" y="4570380.0836" z="0.0000" type="priority" />
	<node id="898090016" x="620263.6270" y="4568964.2741" z="0.0000" type="priority" />
	<node id="898090379" x="621123.1595" y="4568673.1449" z="0.0000" type="priority" />
	<node id="898091480" x="622089.4884" y="4569328.1685" z="0.0000" type="priority" />
	<node id="898091363" x="623370.3566" y="4569813.9721" z="0.0000" type="priority" />
	<node id="898090153" x="619914.6357" y="4569391.0511" z="0.0000" type="priority" />
	<node id="898090395" x="623376.6699" y="4569944.1205" z="0.0000" type="priority" />
	<node id="898091240" x="621893.8867" y="4569405.4002" z="0.0000" type="priority" />
	<node id="898090151" x="624604.9305" y="4570288.3316" z="0.0000" type="priority" />
	<node id="898090272" x="622065.0750" y="4569359.9635" z="0.0000" type="priority" />
	<node id="898090266" x="622808.6414" y="4569090.7413" z="0.0000" type="priority" />
	<node id="898091475" x="622779.1114" y="4569112.6752" z="0.0000" type="priority" />
	<node id="898091596" x="622598.0176" y="4569233.1100" z="0.0000" type="priority" />
	<node id="898090023" x="623142.8440" y="4569662.7518" z="0.0000" type="priority" />
	<node id="911175126" x="621450.3200" y="4569805.3473" z="0.0000" type="priority" />
	<node id="898091118" x="622767.2593" y="4569318.4749" z="0.0000" type="priority" />
	<node id="898091117" x="621015.1069" y="4569234.7035" z="0.0000" type="priority" />
	<node id="898091236" x="624151.0664" y="4570069.1267" z="0.0000" type="priority" />
	<node id="898091890" x="623151.7601" y="4569685.4461" z="0.0000" type="priority" />
	<node id="4498264809" x="623339.2824" y="4569937.9005" z="0.0000" type="priority" />
	<node id="898091406" x="622034.6448" y="4569470.7258" z="0.0000" type="priority" />
	<node id="2242428472" x="621413.0860" y="4569789.8228" z="0.0000" type="priority" />
	<node id="898090438" x="623285.2092" y="4569839.5028" z="0.0000" type="priority" />
	<node id="898090552" x="621387.0909" y="4569652.0752" z="0.0000" type="priority" />
	<node id="898091521" x="622489.5133" y="4569202.9644" z="0.0000" type="priority" />
	<node id="898090795" x="624832.6778" y="4570344.9871" z="0.0000" type="priority" />
	<node id="898090435" x="621644.2534" y="4569507.2748" z="0.0000" type="priority" />
	<node id="898090678" x="624583.1522" y="4570288.0696" z="0.0000" type="priority" />
	<node id="898091403" x="623342.1074" y="4569908.6642" z="0.0000" type="priority" />
	<node id="898090554" x="622506.5604" y="4569235.5672" z="0.0000" type="priority" />
	<node id="898091644" x="621671.4007" y="4569472.1927" z="0.0000" type="priority" />
	<node id="898091765" x="624817.7715" y="4570334.8476" z="0.0000" type="priority" />
	<node id="911175154" x="621507.2699" y="4569838.8251" z="0.0000" type="priority" />
	<node id="3165875000" x="621370.6544" y="4569774.4671" z="0.0000" type="priority" />
	<node id="898090690" x="623376.9470" y="4569731.6837" z="0.0000" type="priority" />
	<node id="3165875004" x="621519.4027" y="4569866.3462" z="0.0000" type="priority" />
	<node id="3165875003" x="621516.3061" y="4569852.6019" z="0.0000" type="priority" />
	<node id="3165875002" x="621493.8549" y="4569830.3722" z="0.0000" type="priority" />
	<node id="3165875001" x="621473.4194" y="4569819.8809" z="0.0000" type="priority" />
	<node id="3165875006" x="621506.5157" y="4569974.7493" z="0.0000" type="priority" />
	<node id="3165875005" x="621520.4581" y="4569895.9476" z="0.0000" type="priority" />
	<node id="898090208" x="624735.0749" y="4570315.6604" z="0.0000" type="priority" />
	<node id="1724274095" x="621446.6906" y="4570101.4914" z="0.0000" type="priority" />
	<node id="898090561" x="620905.1226" y="4568819.3250" z="0.0000" type="priority" />
	<node id="1724274099" x="621037.6925" y="4570276.7181" z="0.0000" type="priority" />
	<node id="898090325" x="624378.2586" y="4570217.5982" z="0.0000" type="priority" />
	<node id="898091415" x="624627.3769" y="4570288.7163" z="0.0000" type="priority" />
	<node id="898091657" x="623319.8010" y="4569858.4460" z="0.0000" type="priority" />
	<node id="898091778" x="620096.6146" y="4569218.9280" z="0.0000" type="priority" />
	<node id="898091791" x="622900.7092" y="4569429.2251" z="0.0000" type="priority" />
	<node id="898090219" x="623530.4611" y="4569839.1218" z="0.0000" type="priority" />
	<node id="898091307" x="622220.0135" y="4569184.6617" z="0.0000" type="priority" />
	<node id="1724274080" x="622235.5161" y="4571226.8703" z="0.0000" type="priority" />
	<node id="898091306" x="621409.2211" y="4568794.8481" z="0.0000" type="priority" />
	<node id="898091543" x="624435.2669" y="4570239.8954" z="0.0000" type="priority" />
	<node id="898090212" x="620090.2356" y="4569148.5284" z="0.0000" type="priority" />
	<node id="898090572" x="624280.4255" y="4570147.6287" z="0.0000" type="priority" />
	<node id="898091662" x="621962.9650" y="4569498.1747" z="0.0000" type="priority" />
	<node id="898091783" x="623471.7673" y="4569812.1392" z="0.0000" type="priority" />
	<node id="898090573" x="619893.8072" y="4569469.7860" z="0.0000" type="priority" />
	<node id="898090336" x="622887.3961" y="4569235.2160" z="0.0000" type="priority" />
	<node id="898091668" x="624545.9627" y="4570282.6574" z="0.0000" type="priority" />
	<node id="898091425" x="620077.1506" y="4569281.3496" z="0.0000" type="priority" />
	<node id="898091303" x="622852.5739" y="4569213.3061" z="0.0000" type="priority" />
	<node id="898090335" x="621204.5429" y="4569647.8541" z="0.0000" type="priority" />
	<node id="898090456" x="621932.0597" y="4569472.4481" z="0.0000" type="priority" />
	<node id="898091560" x="622816.1552" y="4569117.1873" z="0.0000" type="priority" />
	<node id="898090464" x="624666.0377" y="4570291.3778" z="0.0000" type="priority" />
	<node id="898091311" x="623715.8486" y="4569904.7947" z="0.0000" type="priority" />
	<node id="898091553" x="621081.9963" y="4569560.4157" z="0.0000" type="priority" />
	<node id="898090583" x="622833.2045" y="4569169.4470" z="0.0000" type="priority" />
	<node id="898091431" x="623409.4142" y="4569753.8895" z="0.0000" type="priority" />
	<node id="898091794" x="621396.4481" y="4569617.0284" z="0.0000" type="priority" />
	<node id="898090589" x="622218.9482" y="4569198.1920" z="0.0000" type="priority" />
	<node id="898091679" x="619986.1112" y="4569304.3895" z="0.0000" type="priority" />
	<node id="898090348" x="622224.3257" y="4569152.4184" z="0.0000" type="priority" />
	<node id="898091799" x="622432.9428" y="4569163.8107" z="0.0000" type="priority" />
	<node id="898090587" x="621273.1233" y="4568790.6906" z="0.0000" type="priority" />
	<node id="898089895" x="622800.7712" y="4569254.1867" z="0.0000" type="priority" />
	<node id="898089776" x="622748.9300" y="4569312.2799" z="0.0000" type="priority" />
	<node id="898089898" x="621050.2266" y="4569505.9167" z="0.0000" type="priority" />
	<node id="898091848" x="624323.6025" y="4570190.0112" z="0.0000" type="priority" />
	<node id="898091969" x="623381.9511" y="4569841.7095" z="0.0000" type="priority" />
	<node id="898090514" x="622773.1218" y="4569070.3748" z="0.0000" type="priority" />
	<node id="898090877" x="623360.2076" y="4569789.9239" z="0.0000" type="priority" />
	<node id="898091960" x="624463.3959" y="4570250.9267" z="0.0000" type="priority" />
	<node id="1724274066" x="621504.9965" y="4570404.6780" z="0.0000" type="priority" />
	<node id="1724274186" x="621638.7453" y="4571113.3625" z="0.0000" type="priority" />
	<node id="898090633" x="621266.0571" y="4569661.9833" z="0.0000" type="priority" />
	<node id="898090755" x="622470.6392" y="4569179.3260" z="0.0000" type="priority" />
	<node id="898090510" x="621759.4103" y="4569395.1525" z="0.0000" type="priority" />
	<node id="898091842" x="620950.8025" y="4568783.3267" z="0.0000" type="priority" />
	<node id="898090753" x="621364.4153" y="4569704.0015" z="0.0000" type="priority" />
	<node id="898090874" x="619950.7837" y="4569327.9046" z="0.0000" type="priority" />
	<node id="898090890" x="623011.7343" y="4569265.4132" z="0.0000" type="priority" />
	<node id="898090648" x="623778.2451" y="4570019.3511" z="0.0000" type="priority" />
	<node id="898091859" x="621885.1711" y="4569380.4899" z="0.0000" type="priority" />
	<node id="1724274170" x="621907.7577" y="4571176.9581" z="0.0000" type="priority" />
	<node id="898090528" x="624787.2296" y="4570322.8851" z="0.0000" type="priority" />
	<node id="898091977" x="621334.4512" y="4569755.3955" z="0.0000" type="priority" />
	<node id="898091619" x="622978.5870" y="4569317.9353" z="0.0000" type="priority" />
	<node id="898090641" x="622964.6363" y="4569241.0742" z="0.0000" type="priority" />
	<node id="1724274175" x="621259.5947" y="4570998.6884" z="0.0000" type="priority" />
	<node id="898090644" x="622239.9810" y="4569098.3776" z="0.0000" type="priority" />
	<node id="898090403" x="623009.1166" y="4569281.4714" z="0.0000" type="priority" />
	<node id="898090766" x="624179.7544" y="4570081.8322" z="0.0000" type="priority" />
	<node id="1724274059" x="622127.5867" y="4571171.6966" z="0.0000" type="priority" />
	<node id="898090401" x="621273.4158" y="4569757.8313" z="0.0000" type="priority" />
	<node id="898090522" x="622039.4419" y="4569449.4845" z="0.0000" type="priority" />
	<node id="898090643" x="621300.5898" y="4568872.2150" z="0.0000" type="priority" />
	<node id="898091610" x="623397.4270" y="4569927.0931" z="0.0000" type="priority" />
	<node id="898091731" x="623921.5867" y="4570010.1315" z="0.0000" type="priority" />
	<node id="898091852" x="619822.4259" y="4569413.5406" z="0.0000" type="priority" />
	<node id="898089790" x="623386.8157" y="4569939.6951" z="0.0000" type="priority" />
	<node id="2163156698" x="619837.7814" y="4569482.8773" z="0.0000" type="priority" />
	<node id="898091749" x="622800.1469" y="4569226.6355" z="0.0000" type="priority" />
	<node id="1724274280" x="621192.8060" y="4570893.0876" z="0.0000" type="priority" />
	<node id="898090778" x="621905.8709" y="4569430.2542" z="0.0000" type="priority" />
	<node id="898091504" x="623544.6293" y="4569823.8152" z="0.0000" type="priority" />
	<node id="1724274283" x="621186.1745" y="4570928.0801" z="0.0000" type="priority" />
	<node id="1724274281" x="621198.0955" y="4570401.7890" z="0.0000" type="priority" />
	<node id="898090410" x="621311.2506" y="4568946.4632" z="0.0000" type="priority" />
	<node id="898090894" x="620484.7757" y="4568917.5163" z="0.0000" type="priority" />
	<node id="898090892" x="621296.4177" y="4568926.4490" z="0.0000" type="priority" />
	<node id="898091980" x="622924.4587" y="4569377.4323" z="0.0000" type="priority" />
	<node id="898091624" x="622227.4426" y="4569131.4822" z="0.0000" type="priority" />
	<node id="898091744" x="621796.3889" y="4569363.4559" z="0.0000" type="priority" />
	<node id="898091865" x="622780.0631" y="4569056.2774" z="0.0000" type="priority" />
	<node id="898091985" x="621287.6123" y="4568886.6573" z="0.0000" type="priority" />
	<node id="898091880" x="624955.6001" y="4570382.9681" z="0.0000" type="priority" />
	<node id="898090791" x="622203.8435" y="4569279.3384" z="0.0000" type="priority" />
	<node id="898091638" x="623749.3244" y="4569980.8793" z="0.0000" type="priority" />
	<node id="2163156799" x="619843.0163" y="4569507.3944" z="0.0000" type="priority" />
	<node id="898090305" x="622578.8477" y="4569237.0069" z="0.0000" type="priority" />
	<node id="898091516" x="621324.7546" y="4569131.5868" z="0.0000" type="priority" />
	<node id="898090548" x="622964.0610" y="4569563.6126" z="0.0000" type="priority" />
	<node id="898090669" x="622783.4492" y="4569312.4182" z="0.0000" type="priority" />
	<node id="1724274152" x="621297.4065" y="4571049.0142" z="0.0000" type="priority" />
	<node id="898090541" x="623567.8236" y="4569790.1164" z="0.0000" type="priority" />
	<node id="898090662" x="623217.2089" y="4569788.6107" z="0.0000" type="priority" />
	<node id="1724274277" x="621235.1805" y="4570980.8242" z="0.0000" type="priority" />
	<node id="898091993" x="623802.8902" y="4570028.4326" z="0.0000" type="priority" />
	<node id="1724274034" x="621383.0059" y="4570805.3875" z="0.0000" type="priority" />
	<node id="898090660" x="621564.9844" y="4569562.8075" z="0.0000" type="priority" />
	<node id="898090781" x="622801.8026" y="4569068.9710" z="0.0000" type="priority" />
	<node id="898091870" x="622162.3618" y="4569299.6303" z="0.0000" type="priority" />
	<node id="898091755" x="622047.9640" y="4569400.9873" z="0.0000" type="priority" />