<connections>
	<connection from="405348731_262246244_4075536140_262246244" to="405348731_262246244_4075536140_4075536141" />
	<connection from="405348731_262246244_4075536140_4075536141" to="405348730_4075536140_4075536138_4075536140" />
	<connection from="24220330_262247083_4075536121_262247083" to="24220330_262247083_4075536121_4075536105" />
	<connection from="24220330_262247083_4075536121_4075536105" to="24220330_262247083_4075536121_25417995" />
	<connection from="24220330_262247083_4075536121_25417995" to="24220330_262247083_4075536121_4075536107" />
	<connection from="24220330_262247083_4075536121_4075536107" to="24220330_262247083_4075536121_4075536113" />
	<connection from="24220330_262247083_4075536121_4075536113" to="24220330_262247083_4075536121_25423008" />
	<connection from="24220330_262247083_4075536121_25423008" to="24220330_262247083_4075536121_4386387175" />
	<connection from="405348730_4075536140_4075536138_4075536140" to="405348729_4075536138_4386405025_4075536138" />
	<connection from="8362826_262246956_4385535697_262246956" to="8362826_262246956_4385535697_4385359942" />
	<connection from="8362826_262246956_4385535697_4385359942" to="8362826_262246956_4385535697_4385359941" />
	<connection from="8362826_262246956_4385535697_4385359941" to="8362826_262246956_4385535697_262246957" />
	<connection from="8362826_262246956_4385535697_262246957" to="8362826_262246956_4385535697_4075536080" />
	<connection from="8362826_262246956_4385535697_4075536080" to="8362826_262246956_4385535697_25416623" />
	<connection from="8362826_262246956_4385535697_25416623" to="8362826_262246956_4385535697_4075536085" />
	<connection from="8362826_262246956_4385535697_4075536085" to="8362826_262246956_4385535697_25416624" />
	<connection from="8362826_262246956_4385535697_25416624" to="8362826_262246956_4385535697_4075536087" />
	<connection from="8362826_262246956_4385535697_4075536087" to="8362826_262246956_4385535697_25416625" />
	<connection from="8362826_262246956_4385535697_25416625" to="8362826_262246956_4385535697_4075536090" />
	<connection from="8362826_262246956_4385535697_4075536090" to="8362826_262246956_4385535697_25416626" />
	<connection from="8362826_262246956_4385535697_25416626" to="8362826_262246956_4385535697_4075536095" />
	<connection from="8362826_262246956_4385535697_4075536095" to="8362826_262246956_4385535697_25416627" />
	<connection from="8362826_262246956_4385535697_25416627" to="8362826_262246956_4385535697_4075536097" />
	<connection from="8362826_262246956_4385535697_4075536097" to="8362826_262246956_4385535697_25416628" />
	<connection from="8362826_262246956_4385535697_25416628" to="8362826_262246956_4385535697_262246958" />
	<connection from="8362826_262246956_4385535697_262246958" to="8362826_262246956_4385535697_4385535692" />
	<connection from="8362826_262246956_4385535697_4385535692" to="8362826_262246956_4385535697_4385535693" />
	<connection from="8362826_262246956_4385535697_4385535693" to="8362826_262246956_4385535697_4385535694" />
	<connection from="8362826_262246956_4385535697_4385535694" to="8362826_262246956_4385535697_4385535695" />
	<connection from="8362826_262246956_4385535697_4385535695" to="8362826_262246956_4385535697_4385535696" />
	<connection from="8362826_262246956_4385535697_4385535696" to="24220349_4385535697_25417938_4385535697" />
	<connection from="24220285_262246901_4075536120_262246901" to="24220285_262246901_4075536120_4075536077" />
	<connection from="24220285_262246901_4075536120_4075536077" to="24220285_262246901_4075536120_254812021" />
	<connection from="24220285_262246901_4075536120_254812021" to="24220285_262246901_4075536120_254812022" />
	<connection from="24220285_262246901_4075536120_254812022" to="24220285_262246901_4075536120_4075536079" />
	<connection from="24220285_262246901_4075536120_4075536079" to="24220285_262246901_4075536120_254812023" />
	<connection from="24220285_262246901_4075536120_254812023" to="24220285_262246901_4075536120_254812024" />
	<connection from="24220285_262246901_4075536120_254812024" to="24220285_262246901_4075536120_262247074" />
	<connection from="24220285_262246901_4075536120_262247074" to="24220285_262246901_4075536120_254812025" />
	<connection from="24220285_262246901_4075536120_254812025" to="24220285_262246901_4075536120_254812026" />
	<connection from="24220285_262246901_4075536120_254812026" to="24220285_262246901_4075536120_4075536123" />
	<connection from="24220285_262246901_4075536120_4075536123" to="24220285_262246901_4075536120_254812028" />
	<connection from="24220285_262246901_4075536120_254812028" to="24220285_262246901_4075536120_254812030" />
	<connection from="24220285_262246901_4075536120_254812030" to="24220285_262246901_4075536120_262247075" />
	<connection from="24220285_262246901_4075536120_262247075" to="24220285_262246901_4075536120_4386387179" />
	<connection from="24220285_262246901_4075536120_4386387179" to="24220285_262246901_4075536120_4386387178" />
	<connection from="282895059_4075536126_262247105_4075536126" to="282895059_4075536126_262247105_4386387170" />
	<connection from="282895059_4075536126_262247105_4386387170" to="282895059_4075536126_262247105_4386387173" />
	<connection from="282895059_4075536126_262247105_4386387173" to="282895059_4075536126_262247105_4386387172" />
	<connection from="282895059_4075536126_262247105_4386387172" to="282895059_4075536126_262247105_4386387174" />
	<connection from="282895059_4075536126_262247105_4386387174" to="282895059_4075536126_262247105_4075536100" />
	<connection from="282895059_4075536126_262247105_4075536100" to="282895059_4075536126_262247105_25417996" />
	<connection from="282895059_4075536126_262247105_25417996" to="282895059_4075536126_262247105_4075536098" />
	<connection from="282895059_4075536126_262247105_4075536098" to="24220334_262247105_25417994_262247105" />
	<connection from="405348706_25417989_262247155_25417989" to="405348706_25417989_262247155_4075536119" />
	<connection from="405348706_25417989_262247155_4075536119" to="24220345_262247155_4075536118_262247155" />
	<connection from="8362792_4386405024_4386405021_4386405024" to="8362792_4386405024_4386405021_4386405023" />
	<connection from="8362792_4386405024_4386405021_4386405023" to="8362792_4386405024_4386405021_4386405022" />
	<connection from="8362792_4386405024_4386405021_4386405022" to="440870865_4386405021_4386405020_4386405021" />
	<connection from="147160368_262246252_254812753_262246252" to="147160368_262246252_254812753_262246253" />
	<connection from="147160368_262246252_254812753_262246253" to="147160368_262246252_254812753_262246254" />
	<connection from="147160368_262246252_254812753_262246254" to="147160368_262246252_254812753_262246255" />
	<connection from="147160368_262246252_254812753_262246255" to="147160368_262246252_254812753_4385359932" />
	<connection from="147160368_262246252_254812753_4385359932" to="147160368_262246252_254812753_4385359933" />
	<connection from="440781475_4385535690_4386405031_4385535690" to="440781475_4385535690_4386405031_4385535689" />
	<connection from="440781475_4385535690_4386405031_4385535689" to="440781475_4385535690_4386405031_4385535588" />
	<connection from="440781475_4385535690_4386405031_4385535588" to="440781475_4385535690_4386405031_4385535587" />
	<connection from="440781475_4385535690_4386405031_4385535587" to="440781475_4385535690_4386405031_262246977" />
	<connection from="440781475_4385535690_4386405031_262246977" to="440781475_4385535690_4386405031_4385535586" />
	<connection from="440781475_4385535690_4386405031_4385535586" to="440781475_4385535690_4386405031_4075536122" />
	<connection from="440781475_4385535690_4386405031_4075536122" to="440781475_4385535690_4386405031_25416620" />
	<connection from="440781475_4385535690_4386405031_25416620" to="440781475_4385535690_4386405031_4075536125" />
	<connection from="440781475_4385535690_4386405031_4075536125" to="440781475_4385535690_4386405031_25416619" />
	<connection from="440781475_4385535690_4386405031_25416619" to="440781475_4385535690_4386405031_4075536129" />
	<connection from="440781475_4385535690_4386405031_4075536129" to="440781475_4385535690_4386405031_25416618" />
	<connection from="440781475_4385535690_4386405031_25416618" to="440781475_4385535690_4386405031_25416617" />
	<connection from="440781475_4385535690_4386405031_25416617" to="440781475_4385535690_4386405031_25416616" />
	<connection from="440781475_4385535690_4386405031_25416616" to="440781475_4385535690_4386405031_262246978" />
	<connection from="440781475_4385535690_4386405031_262246978" to="440781475_4385535690_4386405031_30043857" />
	<connection from="440781475_4385535690_4386405031_30043857" to="440781475_4385535690_4386405031_4386405029" />
	<connection from="440781475_4385535690_4386405031_4386405029" to="440781475_4385535690_4386405031_4386405030" />
	<connection from="440781475_4385535690_4386405031_4386405030" to="405348732_4386405031_30043855_4386405031" />
	<connection from="405348728_262246956_244451562_262246956" to="405348728_262246956_244451562_262246960" />
	<connection from="405348728_262246956_244451562_262246960" to="405348728_262246956_244451562_244451560" />
	<connection from="405348728_262246956_244451562_244451560" to="405348728_262246956_244451562_244451561" />
	<connection from="405348728_262246956_244451562_244451561" to="405348728_262246956_244451562_4075536101" />
	<connection from="405348728_262246956_244451562_4075536101" to="405348734_244451562_4386405028_244451562" />
	<connection from="405348739_262246645_4075536078_262246645" to="405348739_262246645_4075536078_254812748" />
	<connection from="405348739_262246645_4075536078_254812748" to="405348739_262246645_4075536078_254812749" />
	<connection from="405348739_262246645_4075536078_254812749" to="405348740_4075536078_254812753_4075536078" />
	<connection from="405348739_262246645_4075536078_254812749" to="24220276_4075536078_262246803_4075536078" />
	<connection from="405348703_4075536109_25417992_4075536109" to="24220348_25417992_262247160_25417992" />
	<connection from="24220334_262247105_25417994_262247105" to="24220333_25417994_4075536109_25417994" />
	<connection from="405348699_4075536102_262246252_4075536102" to="405348699_4075536102_262246252_262246251" />
	<connection from="405348699_4075536102_262246252_262246251" to="147160368_262246252_254812753_262246252" />
	<connection from="405348714_4385535690_4075536104_4385535690" to="405348714_4385535690_4075536104_4385535585" />
	<connection from="405348714_4385535690_4075536104_4385535585" to="405348710_4075536104_25417985_4075536104" />
	<connection from="440870864_4075536118_25417993_4075536118" to="24220329_25417993_262247083_25417993" />
	<connection from="23543976_4075536126_262246645_4075536126" to="23543976_4075536126_262246645_4386387171" />
	<connection from="23543976_4075536126_262246645_4386387171" to="23543976_4075536126_262246645_4386387167" />
	<connection from="23543976_4075536126_262246645_4386387167" to="23543976_4075536126_262246645_4386387168" />
	<connection from="23543976_4075536126_262246645_4386387168" to="23543976_4075536126_262246645_4386387169" />
	<connection from="23543976_4075536126_262246645_4386387169" to="23543976_4075536126_262246645_4386387165" />
	<connection from="23543976_4075536126_262246645_4386387165" to="23543976_4075536126_262246645_4386387166" />
	<connection from="23543976_4075536126_262246645_4386387166" to="23543976_4075536126_262246645_4075536093" />
	<connection from="23543976_4075536126_262246645_4075536093" to="23543976_4075536126_262246645_254812746" />
	<connection from="23543976_4075536126_262246645_254812746" to="23543976_4075536126_262246645_4075536088" />
	<connection from="23543976_4075536126_262246645_4075536088" to="23543976_4075536126_262246645_254812747" />
	<connection from="23543976_4075536126_262246645_254812747" to="405348739_262246645_4075536078_262246645" />
	<connection from="405348729_4075536138_4386405025_4075536138" to="405348733_4386405025_262246248_4386405025" />
	<connection from="8362805_4075536102_4075536109_4075536102" to="8362805_4075536102_4075536109_4385535700" />
	<connection from="8362805_4075536102_4075536109_4385535700" to="8362805_4075536102_4075536109_4385535701" />
	<connection from="8362805_4075536102_4075536109_4385535701" to="8362805_4075536102_4075536109_262247255" />
	<connection from="8362805_4075536102_4075536109_262247255" to="8362805_4075536102_4075536109_25416588" />
	<connection from="8362805_4075536102_4075536109_25416588" to="8362805_4075536102_4075536109_4075536084" />
	<connection from="8362805_4075536102_4075536109_4075536084" to="8362805_4075536102_4075536109_25416589" />
	<connection from="8362805_4075536102_4075536109_25416589" to="8362805_4075536102_4075536109_4075536082" />
	<connection from="8362805_4075536102_4075536109_4075536082" to="8362805_4075536102_4075536109_25416590" />
	<connection from="8362805_4075536102_4075536109_25416590" to="8362805_4075536102_4075536109_4075536081" />
	<connection from="8362805_4075536102_4075536109_4075536081" to="8362805_4075536102_4075536109_25416591" />
	<connection from="8362805_4075536102_4075536109_25416591" to="8362805_4075536102_4075536109_4075536083" />
	<connection from="8362805_4075536102_4075536109_4075536083" to="8362805_4075536102_4075536109_25416592" />
	<connection from="8362805_4075536102_4075536109_25416592" to="8362805_4075536102_4075536109_4075536086" />
	<connection from="8362805_4075536102_4075536109_4075536086" to="8362805_4075536102_4075536109_25416593" />
	<connection from="8362805_4075536102_4075536109_25416593" to="8362805_4075536102_4075536109_4075536089" />
	<connection from="8362805_4075536102_4075536109_4075536089" to="8362805_4075536102_4075536109_25416594" />
	<connection from="8362805_4075536102_4075536109_25416594" to="8362805_4075536102_4075536109_4075536096" />
	<connection from="8362805_4075536102_4075536109_4075536096" to="8362805_4075536102_4075536109_25416595" />
	<connection from="8362805_4075536102_4075536109_25416595" to="405348703_4075536109_25417992_4075536109" />
	<connection from="405348734_244451562_4386405028_244451562" to="405348734_244451562_4386405028_244451758" />
	<connection from="405348734_244451562_4386405028_244451758" to="405348734_244451562_4386405028_244451757" />
	<connection from="405348734_244451562_4386405028_244451757" to="405348734_244451562_4386405028_4075536135" />
	<connection from="405348734_244451562_4386405028_4075536135" to="405348734_244451562_4386405028_262245483" />
	<connection from="405348734_244451562_4386405028_262245483" to="405348732_4386405028_4386405031_4386405028" />
	<connection from="405348719_244451559_262246956_244451559" to="405348728_262246956_244451562_262246956" />
	<connection from="405348719_244451559_262246956_244451559" to="8362826_262246956_4385535697_262246956" />
	<connection from="24220329_25417993_262247083_25417993" to="24220330_262247083_4075536121_262247083" />
	<connection from="24220348_25417992_262247160_25417992" to="405348712_262247160_4075536106_262247160" />
	<connection from="405348705_4386405024_25417989_4386405024" to="405348706_25417989_262247155_25417989" />
	<connection from="24220345_262247155_4075536118_262247155" to="440870864_4075536118_25417993_4075536118" />
	<connection from="440870865_4386405021_4386405020_4386405021" to="440870866_4386405020_262246249_4386405020" />
	<connection from="24220349_25417982_4385535697_25417982" to="24220349_4385535697_25417938_4385535697" />
	<connection from="24220279_262246804_244451558_262246804" to="24220279_262246804_244451558_262246805" />
	<connection from="24220279_262246804_244451558_262246805" to="24220279_262246804_244451558_262246806" />
	<connection from="24220279_262246804_244451558_262246806" to="24220279_262246804_244451558_4075536074" />
	<connection from="24220279_262246804_244451558_4075536074" to="24220279_262246804_244451558_262246807" />
	<connection from="24220279_262246804_244451558_262246807" to="24220279_262246804_244451558_262246808" />
	<connection from="24220279_262246804_244451558_262246808" to="24220279_262246804_244451558_262246809" />
	<connection from="24220279_262246804_244451558_262246809" to="24220279_262246804_244451558_4385359940" />
	<connection from="24220279_262246804_244451558_4385359940" to="24220279_262246804_244451558_262246810" />
	<connection from="24220279_262246804_244451558_262246810" to="24220279_262246804_244451558_4075536069" />
	<connection from="24220279_262246804_244451558_4075536069" to="24220279_262246804_244451558_262246811" />
	<connection from="24220279_262246804_244451558_262246811" to="24220279_262246804_244451558_4385359939" />
	<connection from="24220279_262246804_244451558_4385359939" to="24220279_262246804_244451558_262246812" />
	<connection from="24220279_262246804_244451558_262246812" to="24220279_262246804_244451558_4385359938" />
	<connection from="24220279_262246804_244451558_4385359938" to="24220279_262246804_244451558_262246813" />
	<connection from="24220279_262246804_244451558_262246813" to="24220279_262246804_244451558_4385359937" />
	<connection from="24220279_262246804_244451558_4385359937" to="24220279_262246804_244451558_4075536070" />
	<connection from="24220279_262246804_244451558_4075536070" to="24220279_262246804_244451558_4385359936" />
	<connection from="24220279_262246804_244451558_4385359936" to="405348725_244451558_244451559_244451558" />
	<connection from="405348733_4386405025_262246248_4386405025" to="405348733_4386405025_262246248_262246246" />
	<connection from="405348733_4386405025_262246248_262246246" to="405348733_4386405025_262246248_4075536137" />
	<connection from="405348733_4386405025_262246248_4075536137" to="405348733_4386405025_262246248_262246247" />
	<connection from="405348733_4386405025_262246248_262246247" to="405348697_262246248_262246249_262246248" />
	<connection from="405348736_4075536110_4075536120_4075536110" to="405348736_4075536110_4075536120_4075536112" />
	<connection from="405348736_4075536110_4075536120_4075536112" to="405348736_4075536110_4075536120_4386387177" />
	<connection from="405348736_4075536110_4075536120_4386387177" to="405348736_4075536110_4075536120_4386387176" />
	<connection from="405348736_4075536110_4075536120_4386387176" to="405348736_4075536110_4075536120_4386387180" />
	<connection from="405348732_4386405028_4386405031_4386405028" to="405348732_4386405028_4386405031_4075536139" />
	<connection from="405348732_4386405028_4386405031_4075536139" to="405348732_4386405031_30043855_4386405031" />
	<connection from="405348710_4075536104_25417985_4075536104" to="405348710_4075536104_25417985_4075536108" />
	<connection from="405348710_4075536104_25417985_4075536108" to="405348705_25417985_4386405024_25417985" />
	<connection from="440870866_4386405020_262246249_4386405020" to="440870866_4386405020_262246249_262247261" />
	<connection from="440870866_4386405020_262246249_262247261" to="440870866_4386405020_262246249_25416570" />
	<connection from="440870866_4386405020_262246249_25416570" to="440870866_4386405020_262246249_4075536124" />
	<connection from="440870866_4386405020_262246249_4075536124" to="440870866_4386405020_262246249_25416571" />
	<connection from="440870866_4386405020_262246249_25416571" to="440870866_4386405020_262246249_4075536128" />
	<connection from="440870866_4386405020_262246249_4075536128" to="440870866_4386405020_262246249_25416572" />
	<connection from="440870866_4386405020_262246249_25416572" to="440870866_4386405020_262246249_4075536132" />
	<connection from="440870866_4386405020_262246249_4075536132" to="440870866_4386405020_262246249_25416573" />
	<connection from="440870866_4386405020_262246249_25416573" to="440870866_4386405020_262246249_4075536134" />
	<connection from="440870866_4386405020_262246249_4075536134" to="440870866_4386405020_262246249_25416574" />
	<connection from="440870866_4386405020_262246249_25416574" to="440870866_4386405020_262246249_4075536133" />
	<connection from="440870866_4386405020_262246249_4075536133" to="440870866_4386405020_262246249_25416575" />
	<connection from="440870866_4386405020_262246249_25416575" to="440870866_4386405020_262246249_4075536130" />
	<connection from="440870866_4386405020_262246249_4075536130" to="440870866_4386405020_262246249_262247262" />
	<connection from="440870866_4386405020_262246249_262247262" to="440870866_4386405020_262246249_4385535699" />
	<connection from="440870866_4386405020_262246249_4385535699" to="440870866_4386405020_262246249_262247263" />
	<connection from="440870866_4386405020_262246249_262247263" to="440870866_4386405020_262246249_4385535698" />
	<connection from="440870866_4386405020_262246249_4385535698" to="405348698_262246249_4075536102_262246249" />
	<connection from="405348725_244451558_244451559_244451558" to="405348719_244451559_262246956_244451559" />
	<connection from="23543928_4075536065_254812020_4075536065" to="23543928_4075536065_254812020_4385359929" />
	<connection from="23543928_4075536065_254812020_4385359929" to="23543928_4075536065_254812020_4385359928" />
	<connection from="23543928_4075536065_254812020_4385359928" to="23543928_4075536065_254812020_262246580" />
	<connection from="23543928_4075536065_254812020_262246580" to="23543928_4075536065_254812020_254812013" />
	<connection from="23543928_4075536065_254812020_254812013" to="23543928_4075536065_254812020_4075536067" />
	<connection from="23543928_4075536065_254812020_4075536067" to="23543928_4075536065_254812020_254812014" />
	<connection from="23543928_4075536065_254812020_254812014" to="23543928_4075536065_254812020_4075536068" />
	<connection from="23543928_4075536065_254812020_4075536068" to="23543928_4075536065_254812020_262246582" />
	<connection from="23543928_4075536065_254812020_262246582" to="23543928_4075536065_254812020_254812015" />
	<connection from="23543928_4075536065_254812020_254812015" to="23543928_4075536065_254812020_4075536072" />
	<connection from="23543928_4075536065_254812020_4075536072" to="23543928_4075536065_254812020_254812016" />
	<connection from="23543928_4075536065_254812020_254812016" to="23543928_4075536065_254812020_4075536073" />
	<connection from="23543928_4075536065_254812020_4075536073" to="23543928_4075536065_254812020_254812017" />
	<connection from="23543928_4075536065_254812020_254812017" to="23543928_4075536065_254812020_4075536075" />
	<connection from="23543928_4075536065_254812020_4075536075" to="23543928_4075536065_254812020_254812018" />
	<connection from="23543928_4075536065_254812020_254812018" to="24220282_254812020_262246901_254812020" />
	<connection from="24220333_25417994_4075536109_25417994" to="405348703_4075536109_25417992_4075536109" />
	<connection from="4717996_262246244_262247057_262246244" to="4717996_262246244_262247057_4386405027" />
	<connection from="4717996_262246244_262247057_4386405027" to="4717996_262246244_262247057_4386405026" />
	<connection from="4717996_262246244_262247057_4386405026" to="4717996_262246244_262247057_262246245" />
	<connection from="4717996_262246244_262247057_262246245" to="4717996_262246244_262247057_262247055" />
	<connection from="4717996_262246244_262247057_262247055" to="4717996_262246244_262247057_262247056" />
	<connection from="4717996_262246244_262247057_262247056" to="4717996_262246244_262247057_25416560" />
	<connection from="4717996_262246244_262247057_25416560" to="4717996_262246244_262247057_25416561" />
	<connection from="4717996_262246244_262247057_25416561" to="4717996_262246244_262247057_25416562" />
	<connection from="4717996_262246244_262247057_25416562" to="4717996_262246244_262247057_4075536131" />
	<connection from="4717996_262246244_262247057_4075536131" to="4717996_262246244_262247057_25416563" />
	<connection from="4717996_262246244_262247057_25416563" to="4717996_262246244_262247057_4075536127" />
	<connection from="4717996_262246244_262247057_4075536127" to="4717996_262246244_262247057_25416564" />
	<connection from="4717996_262246244_262247057_25416564" to="4717996_262246244_262247057_262247080" />
	<connection from="4717996_262246244_262247057_262247080" to="24220326_262247057_262247058_262247057" />
	<connection from="24220349_4385535697_25417938_4385535697" to="24220349_4385535697_25417938_4075536094" />
	<connection from="24220349_4385535697_25417938_4075536094" to="24220349_4385535697_25417938_25417980" />
	<connection from="24220349_4385535697_25417938_25417980" to="24220349_4385535697_25417938_25417977" />
	<connection from="24220349_4385535697_25417938_25417977" to="24220349_4385535697_25417938_25417975" />
	<connection from="24220349_4385535697_25417938_25417975" to="24220349_4385535697_25417938_25417973" />
	<connection from="24220349_4385535697_25417938_25417973" to="24220349_4385535697_25417938_25417971" />
	<connection from="24220349_4385535697_25417938_25417971" to="24220349_4385535697_25417938_25417969" />
	<connection from="24220349_4385535697_25417938_25417969" to="24220349_4385535697_25417938_25417967" />
	<connection from="24220349_4385535697_25417938_25417967" to="24220349_4385535697_25417938_25417965" />
	<connection from="24220349_4385535697_25417938_25417965" to="24220349_4385535697_25417938_25417962" />
	<connection from="24220349_4385535697_25417938_25417962" to="24220349_4385535697_25417938_25417960" />
	<connection from="24220349_4385535697_25417938_25417960" to="24220349_4385535697_25417938_25417958" />
	<connection from="24220349_4385535697_25417938_25417958" to="24220349_4385535697_25417938_25417956" />
	<connection from="24220349_4385535697_25417938_25417956" to="24220349_4385535697_25417938_25417954" />
	<connection from="24220349_4385535697_25417938_25417954" to="24220349_4385535697_25417938_25417952" />
	<connection from="24220349_4385535697_25417938_25417952" to="24220349_4385535697_25417938_25417950" />
	<connection from="24220349_4385535697_25417938_25417950" to="24220349_4385535697_25417938_25417948" />
	<connection from="24220349_4385535697_25417938_25417948" to="24220349_4385535697_25417938_25417946" />
	<connection from="24220349_4385535697_25417938_25417946" to="24220349_4385535697_25417938_25417944" />
	<connection from="24220349_4385535697_25417938_25417944" to="24220349_4385535697_25417938_25417942" />
	<connection from="24220349_4385535697_25417938_25417942" to="24220349_4385535697_25417938_25417940" />
	<connection from="24220327_4075536115_4075536110_4075536115" to="24220327_4075536115_4075536110_4075536114" />
	<connection from="24220327_4075536115_4075536110_4075536114" to="405348736_4075536110_4075536120_4075536110" />
	<connection from="24220276_4075536078_262246803_4075536078" to="24220276_4075536078_262246803_4385535703" />
	<connection from="24220276_4075536078_262246803_4385535703" to="24220276_4075536078_262246803_262246802" />
	<connection from="24220276_4075536078_262246803_262246802" to="24220276_4075536078_262246803_4075536076" />
	<connection from="24220276_4075536078_262246803_4075536076" to="24220281_262246803_262246804_262246803" />
	<connection from="24220281_262246803_262246804_262246803" to="24220279_262246804_244451558_262246804" />
	<connection from="23906117_30043855_4386405061_30043855" to="23906117_30043855_4386405061_4075536142" />
	<connection from="23906117_30043855_4386405061_4075536142" to="23906117_30043855_4386405061_244451644" />
	<connection from="23906117_30043855_4386405061_244451644" to="23906117_30043855_4386405061_30043853" />
	<connection from="23906117_30043855_4386405061_30043853" to="23906117_30043855_4386405061_30043851" />
	<connection from="23906117_30043855_4386405061_30043851" to="23906117_30043855_4386405061_30043849" />
	<connection from="23906117_30043855_4386405061_30043849" to="23906117_30043855_4386405061_30043847" />
	<connection from="23906117_30043855_4386405061_30043847" to="23906117_30043855_4386405061_30043846" />
	<connection from="23906117_30043855_4386405061_30043846" to="23906117_30043855_4386405061_30043844" />
	<connection from="23906117_30043855_4386405061_30043844" to="23906117_30043855_4386405061_262245647" />
	<connection from="23906117_30043855_4386405061_262245647" to="23906117_30043855_4386405061_30043842" />
	<connection from="23906117_30043855_4386405061_30043842" to="23906117_30043855_4386405061_30043840" />
	<connection from="23906117_30043855_4386405061_30043840" to="23906117_30043855_4386405061_30043838" />
	<connection from="23906117_30043855_4386405061_30043838" to="23906117_30043855_4386405061_30043836" />
	<connection from="23906117_30043855_4386405061_30043836" to="23906117_30043855_4386405061_30043834" />
	<connection from="23906117_30043855_4386405061_30043834" to="23906117_30043855_4386405061_30043832" />
	<connection from="23906117_30043855_4386405061_30043832" to="23906117_30043855_4386405061_30043830" />
	<connection from="23906117_30043855_4386405061_30043830" to="23906117_30043855_4386405061_30043826" />
	<connection from="23906117_30043855_4386405061_30043826" to="23906117_30043855_4386405061_30043822" />
	<connection from="23906117_30043855_4386405061_30043822" to="23906117_30043855_4386405061_30043820" />
	<connection from="23906117_30043855_4386405061_30043820" to="23906117_30043855_4386405061_30043818" />
	<connection from="23906117_30043855_4386405061_30043818" to="23906117_30043855_4386405061_4385535539" />
	<connection from="405348735_262247058_4075536115_262247058" to="24220327_4075536115_4075536110_4075536115" />
	<connection from="405348697_262246248_262246249_262246248" to="405348698_262246249_4075536102_262246249" />
	<connection from="23890267_25417937_25417981_25417937" to="23890267_25417937_25417981_25417939" />
	<connection from="23890267_25417937_25417981_25417939" to="23890267_25417937_25417981_25417941" />
	<connection from="23890267_25417937_25417981_25417941" to="23890267_25417937_25417981_25417943" />
	<connection from="23890267_25417937_25417981_25417943" to="23890267_25417937_25417981_25417945" />