<?xml version="1.0" ?>
<!-- Generated by VSimRTI -->
<routes>
	<vType id="default" length="7.5" maxSpeed="50" minGap="2.0" carFollowModel="Krauss" accel="0.80" decel="4.5" sigma="0.5" tau="1"/>
	<route id="1" edges="24220334_262247105_25417994_262247105 24220333_25417994_4075536109_25417994 405348703_4075536109_25417992_4075536109 24220348_25417992_262247160_25417992 405348712_262247160_4075536106_262247160 405348712_262247160_4075536106_25417990 405348712_262247160_4075536106_25417988 405348708_4075536106_25417984_4075536106 405348708_4075536106_25417984_25417986 405348713_25417984_25417982_25417984 405348713_25417984_25417982_4075536092 405348713_25417984_25417982_4075536091 405348713_25417984_25417982_4385535691 24220349_25417982_4385535697_25417982 24220349_4385535697_25417938_4385535697 24220349_4385535697_25417938_4075536094 24220349_4385535697_25417938_25417980 24220349_4385535697_25417938_25417977 24220349_4385535697_25417938_25417975 24220349_4385535697_25417938_25417973 24220349_4385535697_25417938_25417971 24220349_4385535697_25417938_25417969 24220349_4385535697_25417938_25417967 24220349_4385535697_25417938_25417965 24220349_4385535697_25417938_25417962 24220349_4385535697_25417938_25417960 24220349_4385535697_25417938_25417958 24220349_4385535697_25417938_25417956 24220349_4385535697_25417938_25417954 24220349_4385535697_25417938_25417952 24220349_4385535697_25417938_25417950 24220349_4385535697_25417938_25417948 24220349_4385535697_25417938_25417946 24220349_4385535697_25417938_25417944 24220349_4385535697_25417938_25417942 24220349_4385535697_25417938_25417940" />
	<route id="2" edges="24220334_262247105_25417994_262247105 24220333_25417994_4075536109_25417994 405348703_4075536109_25417992_4075536109 24220348_25417992_262247160_25417992 405348712_262247160_4075536106_262247160 405348712_262247160_4075536106_25417990 405348712_262247160_4075536106_25417988 405348708_4075536106_25417984_4075536106 405348708_4075536106_25417984_25417986 405348713_25417984_25417982_25417984 405348713_25417984_25417982_4075536092 405348713_25417984_25417982_4075536091 405348713_25417984_25417982_4385535691 24220349_25417982_4385535697_25417982 24220349_4385535697_25417938_4385535697 24220349_4385535697_25417938_4075536094" />
	<route id="3" edges="24220334_262247105_25417994_262247105 24220333_25417994_4075536109_25417994 405348703_4075536109_25417992_4075536109 24220348_25417992_262247160_25417992 405348712_262247160_4075536106_262247160 405348712_262247160_4075536106_25417990 405348712_262247160_4075536106_25417988 405348708_4075536106_25417984_4075536106 405348708_4075536106_25417984_25417986 405348713_25417984_25417982_25417984 405348713_25417984_25417982_4075536092 405348713_25417984_25417982_4075536091 405348713_25417984_25417982_4385535691 24220349_25417982_4385535697_25417982 24220349_4385535697_25417938_4385535697 24220349_4385535697_25417938_4075536094 24220349_4385535697_25417938_25417980 24220349_4385535697_25417938_25417977 24220349_4385535697_25417938_25417975 24220349_4385535697_25417938_25417973 24220349_4385535697_25417938_25417971 24220349_4385535697_25417938_25417969 24220349_4385535697_25417938_25417967 24220349_4385535697_25417938_25417965 24220349_4385535697_25417938_25417962 24220349_4385535697_25417938_25417960 24220349_4385535697_25417938_25417958 24220349_4385535697_25417938_25417956 24220349_4385535697_25417938_25417954 24220349_4385535697_25417938_25417952 24220349_4385535697_25417938_25417950 24220349_4385535697_25417938_25417948 24220349_4385535697_25417938_25417946 24220349_4385535697_25417938_25417944 24220349_4385535697_25417938_25417942 24220349_4385535697_25417938_25417940" />
	<route id="4" edges="405348725_244451558_244451559_244451558 405348719_244451559_262246956_244451559 8362826_262246956_4385535697_262246956 8362826_262246956_4385535697_4385359942 8362826_262246956_4385535697_4385359941 8362826_262246956_4385535697_262246957 8362826_262246956_4385535697_4075536080 8362826_262246956_4385535697_25416623 8362826_262246956_4385535697_4075536085 8362826_262246956_4385535697_25416624 8362826_262246956_4385535697_4075536087 8362826_262246956_4385535697_25416625 8362826_262246956_4385535697_4075536090 8362826_262246956_4385535697_25416626 8362826_262246956_4385535697_4075536095 8362826_262246956_4385535697_25416627 8362826_262246956_4385535697_4075536097 8362826_262246956_4385535697_25416628 8362826_262246956_4385535697_262246958 8362826_262246956_4385535697_4385535692 8362826_262246956_4385535697_4385535693 8362826_262246956_4385535697_4385535694 8362826_262246956_4385535697_4385535695 8362826_262246956_4385535697_4385535696" />
	<route id="5" edges="405348725_244451558_244451559_244451558 405348719_244451559_262246956_244451559 405348728_262246956_244451562_262246956 405348728_262246956_244451562_262246960 405348728_262246956_244451562_244451560 405348728_262246956_244451562_244451561 405348728_262246956_244451562_4075536101 405348734_244451562_4386405028_244451562 405348734_244451562_4386405028_244451758 405348734_244451562_4386405028_244451757 405348734_244451562_4386405028_4075536135 405348734_244451562_4386405028_262245483 405348732_4386405028_4386405031_4386405028 405348732_4386405028_4386405031_4075536139 405348732_4386405031_30043855_4386405031 23906117_30043855_4386405061_30043855 23906117_30043855_4386405061_4075536142" />
	<route id="6" edges="405348725_244451558_244451559_244451558 405348719_244451559_262246956_244451559 8362826_262246956_4385535697_262246956 8362826_262246956_4385535697_4385359942 8362826_262246956_4385535697_4385359941 8362826_262246956_4385535697_262246957 8362826_262246956_4385535697_4075536080 8362826_262246956_4385535697_25416623 8362826_262246956_4385535697_4075536085 8362826_262246956_4385535697_25416624 8362826_262246956_4385535697_4075536087 8362826_262246956_4385535697_25416625 8362826_262246956_4385535697_4075536090 8362826_262246956_4385535697_25416626 8362826_262246956_4385535697_4075536095 8362826_262246956_4385535697_25416627 8362826_262246956_4385535697_4075536097 8362826_262246956_4385535697_25416628 8362826_262246956_4385535697_262246958 8362826_262246956_4385535697_4385535692 8362826_262246956_4385535697_4385535693 8362826_262246956_4385535697_4385535694 8362826_262246956_4385535697_4385535695 8362826_262246956_4385535697_4385535696 24220349_4385535697_25417938_4385535697 24220349_4385535697_25417938_4075536094 24220349_4385535697_25417938_25417980 24220349_4385535697_25417938_25417977 24220349_4385535697_25417938_25417975 24220349_4385535697_25417938_25417973 24220349_4385535697_25417938_25417971 24220349_4385535697_25417938_25417969 24220349_4385535697_25417938_25417967 24220349_4385535697_25417938_25417965 24220349_4385535697_25417938_25417962 24220349_4385535697_25417938_25417960 24220349_4385535697_25417938_25417958 24220349_4385535697_25417938_25417956 24220349_4385535697_25417938_25417954 24220349_4385535697_25417938_25417952 24220349_4385535697_25417938_25417950 24220349_4385535697_25417938_25417948 24220349_4385535697_25417938_25417946 24220349_4385535697_25417938_25417944 24220349_4385535697_25417938_25417942 24220349_4385535697_25417938_25417940" />
	<route id="7" edges="23906117_30043855_4386405061_30043853 23906117_30043855_4386405061_30043851 23906117_30043855_4386405061_30043849 23906117_30043855_4386405061_30043847 23906117_30043855_4386405061_30043846 23906117_30043855_4386405061_30043844 23906117_30043855_4386405061_262245647 23906117_30043855_4386405061_30043842 23906117_30043855_4386405061_30043840 23906117_30043855_4386405061_30043838 23906117_30043855_4386405061_30043836 23906117_30043855_4386405061_30043834 23906117_30043855_4386405061_30043832 23906117_30043855_4386405061_30043830 23906117_30043855_4386405061_30043826 23906117_30043855_4386405061_30043822 23906117_30043855_4386405061_30043820 23906117_30043855_4386405061_30043818 23906117_30043855_4386405061_4385535539" />
	<route id="8" edges="23906117_30043855_4386405061_30043853 23906117_30043855_4386405061_30043851 23906117_30043855_4386405061_30043849 23906117_30043855_4386405061_30043847 23906117_30043855_4386405061_30043846 23906117_30043855_4386405061_30043844 23906117_30043855_4386405061_262245647 23906117_30043855_4386405061_30043842 23906117_30043855_4386405061_30043840 23906117_30043855_4386405061_30043838 23906117_30043855_4386405061_30043836 23906117_30043855_4386405061_30043834 23906117_30043855_4386405061_30043832 23906117_30043855_4386405061_30043830 23906117_30043855_4386405061_30043826 23906117_30043855_4386405061_30043822 23906117_30043855_4386405061_30043820 23906117_30043855_4386405061_30043818 23906117_30043855_4386405061_4385535539" />
	<route id="9" edges="23906117_30043855_4386405061_30043853 23906117_30043855_4386405061_30043851 23906117_30043855_4386405061_30043849 23906117_30043855_4386405061_30043847 23906117_30043855_4386405061_30043846 23906117_30043855_4386405061_30043844 23906117_30043855_4386405061_262245647 23906117_30043855_4386405061_30043842 23906117_30043855_4386405061_30043840 23906117_30043855_4386405061_30043838 23906117_30043855_4386405061_30043836 23906117_30043855_4386405061_30043834 23906117_30043855_4386405061_30043832 23906117_30043855_4386405061_30043830 23906117_30043855_4386405061_30043826 23906117_30043855_4386405061_30043822 23906117_30043855_4386405061_30043820 23906117_30043855_4386405061_30043818 23906117_30043855_4386405061_4385535539" />
</routes>