<nodes>
	<node id="4385359929" x="505297.5306" y="4284598.1337" z="0.0000" type="priority" />
	<node id="4385359928" x="505296.3238" y="4284621.7464" z="0.0000" type="priority" />
	<node id="25417969" x="506507.4729" y="4285650.1532" z="0.0000" type="priority" />
	<node id="262245647" x="505602.8419" y="4287059.1986" z="0.0000" type="priority" />
	<node id="25417968" x="506501.7893" y="4285669.3013" z="0.0000" type="priority" />
	<node id="30043818" x="506187.4241" y="4288274.3892" z="0.0000" type="priority" />
	<node id="262246978" x="505109.8270" y="4285668.4084" z="0.0000" type="priority" />
	<node id="25417965" x="506732.8812" y="4285690.7988" z="0.0000" type="priority" />
	<node id="25417964" x="506733.1772" y="4285710.7396" z="0.0000" type="priority" />
	<node id="25417967" x="506629.6942" y="4285678.3395" z="0.0000" type="priority" />
	<node id="262246977" x="505275.7804" y="4285433.2803" z="0.0000" type="priority" />
	<node id="25417966" x="506625.1750" y="4285697.7658" z="0.0000" type="priority" />
	<node id="25417972" x="506179.0851" y="4285526.3312" z="0.0000" type="priority" />
	<node id="25417971" x="506382.9517" y="4285605.2777" z="0.0000" type="priority" />
	<node id="25417974" x="506086.1345" y="4285481.7512" z="0.0000" type="priority" />
	<node id="25417973" x="506187.8967" y="4285508.4282" z="0.0000" type="priority" />
	<node id="262247263" x="505048.8084" y="4285477.6305" z="0.0000" type="priority" />
	<node id="25417970" x="506375.0522" y="4285623.6362" z="0.0000" type="priority" />
	<node id="4385359932" x="505255.1589" y="4284735.7696" z="0.0000" type="priority" />
	<node id="4385359931" x="505228.9065" y="4284782.2913" z="0.0000" type="priority" />
	<node id="262247262" x="505043.5662" y="4285505.1244" z="0.0000" type="priority" />
	<node id="4385359934" x="505231.0656" y="4284857.1946" z="0.0000" type="priority" />
	<node id="262247261" x="504984.6704" y="4285432.2605" z="0.0000" type="priority" />
	<node id="4385359933" x="505262.2951" y="4284698.9337" z="0.0000" type="priority" />
	<node id="4385359930" x="505244.8986" y="4284737.4384" z="0.0000" type="priority" />
	<node id="4385359939" x="505291.2915" y="4284841.6770" z="0.0000" type="priority" />
	<node id="4385359936" x="505220.3638" y="4284909.2304" z="0.0000" type="priority" />
	<node id="4385359935" x="505212.3559" y="4284910.2017" z="0.0000" type="priority" />
	<node id="4385359938" x="505265.6401" y="4284847.2304" z="0.0000" type="priority" />
	<node id="4385359937" x="505242.5291" y="4284863.3385" z="0.0000" type="priority" />
	<node id="25416626" x="505200.0032" y="4285373.8971" z="0.0000" type="priority" />
	<node id="25417958" x="507041.2170" y="4285646.4350" z="0.0000" type="priority" />
	<node id="25416627" x="505249.1933" y="4285384.1493" z="0.0000" type="priority" />
	<node id="25417957" x="507047.1811" y="4285665.4820" z="0.0000" type="priority" />
	<node id="25416628" x="505313.7785" y="4285383.0381" z="0.0000" type="priority" />
	<node id="25417959" x="506956.2463" y="4285689.2819" z="0.0000" type="priority" />
	<node id="25417954" x="507183.0404" y="4285587.1616" z="0.0000" type="priority" />
	<node id="25416623" x="505111.9242" y="4285258.8907" z="0.0000" type="priority" />
	<node id="25417953" x="507192.5612" y="4285604.7139" z="0.0000" type="priority" />
	<node id="25416624" x="505129.6158" y="4285313.0089" z="0.0000" type="priority" />
	<node id="25417956" x="507119.4991" y="4285618.2416" z="0.0000" type="priority" />
	<node id="25416625" x="505158.2736" y="4285347.6377" z="0.0000" type="priority" />
	<node id="25417955" x="507127.3414" y="4285636.6245" z="0.0000" type="priority" />
	<node id="25417961" x="506844.8690" y="4285709.0593" z="0.0000" type="priority" />
	<node id="25417960" x="506951.9340" y="4285669.8036" z="0.0000" type="priority" />
	<node id="25417962" x="506842.9475" y="4285689.1504" z="0.0000" type="priority" />
	<node id="262247155" x="505090.3418" y="4285429.3091" z="0.0000" type="priority" />
	<node id="4385359942" x="505136.8145" y="4285137.1884" z="0.0000" type="priority" />
	<node id="4385359941" x="505122.7216" y="4285178.0591" z="0.0000" type="priority" />
	<node id="4385359940" x="505345.0732" y="4284867.9784" z="0.0000" type="priority" />
	<node id="25417987" x="505251.8540" y="4285423.0335" z="0.0000" type="priority" />
	<node id="25417986" x="505400.2666" y="4285389.0108" z="0.0000" type="priority" />
	<node id="25417989" x="505193.4137" y="4285426.8678" z="0.0000" type="priority" />
	<node id="25417988" x="505191.9293" y="4285410.1887" z="0.0000" type="priority" />
	<node id="25417994" x="504847.1523" y="4285396.3559" z="0.0000" type="priority" />
	<node id="4075536100" x="504515.6185" y="4285390.9012" z="0.0000" type="priority" />
	<node id="4385535705" x="505065.2785" y="4285046.5724" z="0.0000" type="priority" />
	<node id="25417993" x="504838.3816" y="4285408.9452" z="0.0000" type="priority" />
	<node id="4385535704" x="505039.7356" y="4285074.1533" z="0.0000" type="priority" />
	<node id="25417996" x="504616.6494" y="4285385.4553" z="0.0000" type="priority" />
	<node id="25417995" x="504617.5198" y="4285398.6385" z="0.0000" type="priority" />
	<node id="25417990" x="505127.2918" y="4285411.8224" z="0.0000" type="priority" />
	<node id="4075536104" x="505484.4648" y="4285400.0095" z="0.0000" type="priority" />
	<node id="4075536103" x="505760.9664" y="4285395.2224" z="0.0000" type="priority" />
	<node id="25417992" x="505029.5435" y="4285409.1524" z="0.0000" type="priority" />
	<node id="4075536102" x="505054.3088" y="4285385.8431" z="0.0000" type="priority" />
	<node id="4075536101" x="505068.1879" y="4285392.8316" z="0.0000" type="priority" />
	<node id="4075536108" x="505412.1380" y="4285407.8053" z="0.0000" type="priority" />
	<node id="262247160" x="505091.0049" y="4285412.0766" z="0.0000" type="priority" />
	<node id="4075536107" x="504518.3488" y="4285405.2174" z="0.0000" type="priority" />
	<node id="4075536106" x="505276.7654" y="4285403.0983" z="0.0000" type="priority" />
	<node id="4075536105" x="504700.9944" y="4285399.8303" z="0.0000" type="priority" />
	<node id="4075536109" x="505009.6012" y="4285408.0080" z="0.0000" type="priority" />
	<node id="244451758" x="505070.3592" y="4285519.0899" z="0.0000" type="priority" />
	<node id="244451757" x="505081.8789" y="4285585.6323" z="0.0000" type="priority" />
	<node id="4386387167" x="504059.9917" y="4285489.1269" z="0.0000" type="priority" />
	<node id="4386387166" x="504420.5793" y="4285393.3335" z="0.0000" type="priority" />
	<node id="4386387169" x="504236.3845" y="4285434.7346" z="0.0000" type="priority" />
	<node id="4386387168" x="504177.5899" y="4285452.2361" z="0.0000" type="priority" />
	<node id="25417976" x="505962.2196" y="4285433.2764" z="0.0000" type="priority" />
	<node id="262246645" x="504858.5573" y="4285298.1804" z="0.0000" type="priority" />
	<node id="25417975" x="506094.1465" y="4285463.4702" z="0.0000" type="priority" />
	<node id="25417978" x="505817.4337" y="4285403.3306" z="0.0000" type="priority" />
	<node id="4386387165" x="504295.1867" y="4285419.7635" z="0.0000" type="priority" />
	<node id="25417977" x="505969.5360" y="4285414.7284" z="0.0000" type="priority" />
	<node id="25417983" x="505629.2796" y="4285390.8782" z="0.0000" type="priority" />
	<node id="25417982" x="505704.6742" y="4285372.9998" z="0.0000" type="priority" />
	<node id="262247058" x="504784.6594" y="4285417.1242" z="0.0000" type="priority" />
	<node id="25417985" x="505351.1212" y="4285416.0199" z="0.0000" type="priority" />
	<node id="25417984" x="505527.6453" y="4285375.4161" z="0.0000" type="priority" />
	<node id="262247055" x="505074.5276" y="4285662.4048" z="0.0000" type="priority" />
	<node id="25417981" x="505703.5489" y="4285390.3873" z="0.0000" type="priority" />
	<node id="262247057" x="504824.9927" y="4285424.7275" z="0.0000" type="priority" />
	<node id="25417980" x="505820.3505" y="4285385.3674" z="0.0000" type="priority" />
	<node id="262247056" x="505057.8943" y="4285639.8682" z="0.0000" type="priority" />
	<node id="25416563" x="504901.9174" y="4285502.1287" z="0.0000" type="priority" />
	<node id="4075536122" x="505238.4361" y="4285441.9998" z="0.0000" type="priority" />
	<node id="25416564" x="504865.5678" y="4285449.1646" z="0.0000" type="priority" />
	<node id="4075536121" x="504225.6420" y="4285462.4814" z="0.0000" type="priority" />
	<node id="4075536120" x="504282.8764" y="4285452.5806" z="0.0000" type="priority" />
	<node id="4075536126" x="503969.1889" y="4285523.7690" z="0.0000" type="priority" />
	<node id="25416560" x="505027.7638" y="4285611.8191" z="0.0000" type="priority" />
	<node id="4075536125" x="505182.4595" y="4285467.5075" z="0.0000" type="priority" />
	<node id="25416561" x="504982.0782" y="4285587.6443" z="0.0000" type="priority" />
	<node id="4075536124" x="504938.9675" y="4285462.1928" z="0.0000" type="priority" />
	<node id="25416562" x="504937.3282" y="4285554.1713" z="0.0000" type="priority" />
	<node id="4075536123" x="504733.2458" y="4285461.1913" z="0.0000" type="priority" />
	<node id="4075536129" x="505140.4616" y="4285507.4279" z="0.0000" type="priority" />
	<node id="4075536128" x="504930.3139" y="4285496.0875" z="0.0000" type="priority" />
	<node id="4075536127" x="504886.4952" y="4285473.9450" z="0.0000" type="priority" />
	<node id="4385535701" x="505054.4631" y="4285334.4106" z="0.0000" type="priority" />
	<node id="4385535700" x="505053.3672" y="4285362.6950" z="0.0000" type="priority" />
	<node id="4385535703" x="505009.1529" y="4285111.8069" z="0.0000" type="priority" />
	<node id="4385535702" x="504983.3663" y="4285126.6934" z="0.0000" type="priority" />
	<node id="4075536110" x="504637.8044" y="4285409.1033" z="0.0000" type="priority" />
	<node id="4075536115" x="504755.8943" y="4285414.0665" z="0.0000" type="priority" />
	<node id="4075536114" x="504701.8567" y="4285411.8262" z="0.0000" type="priority" />
	<node id="4075536113" x="504445.8934" y="4285411.5349" z="0.0000" type="priority" />
	<node id="4075536112" x="504564.9165" y="4285411.4025" z="0.0000" type="priority" />
	<node id="4075536119" x="505127.8631" y="4285429.1556" z="0.0000" type="priority" />
	<node id="4075536118" x="505028.9932" y="4285427.0064" z="0.0000" type="priority" />
	<node id="262247075" x="504565.3293" y="4285419.3701" z="0.0000" type="priority" />
	<node id="262247074" x="504795.7936" y="4285435.2072" z="0.0000" type="priority" />
	<node id="4075536140" x="505139.3435" y="4285798.6347" z="0.0000" type="priority" />
	<node id="4075536142" x="505209.2022" y="4285930.1080" z="0.0000" type="priority" />
	<node id="25416588" x="505047.7776" y="4285293.4489" z="0.0000" type="priority" />
	<node id="4075536141" x="505169.3761" y="4285868.7735" z="0.0000" type="priority" />
	<node id="262245220" x="505259.1325" y="4284774.8543" z="0.0000" type="priority" />
	<node id="4386405061" x="506247.1503" y="4288333.4921" z="0.0000" type="priority" />
	<node id="262247083" x="504793.5252" y="4285405.2007" z="0.0000" type="priority" />
	<node id="262247080" x="504847.3730" y="4285433.6627" z="0.0000" type="priority" />
	<node id="25416574" x="504995.3939" y="4285550.0352" z="0.0000" type="priority" />
	<node id="4075536133" x="505013.5316" y="4285544.6759" z="0.0000" type="priority" />
	<node id="25416575" x="505028.9691" y="4285534.0329" z="0.0000" type="priority" />
	<node id="4075536132" x="504942.8893" y="4285530.4614" z="0.0000" type="priority" />
	<node id="254812014" x="505313.7782" y="4284797.0283" z="0.0000" type="priority" />
	<node id="4075536131" x="504917.0004" y="4285530.3899" z="0.0000" type="priority" />
	<node id="254812013" x="505291.9378" y="4284732.5760" z="0.0000" type="priority" />
	<node id="4075536130" x="505038.2617" y="4285521.2333" z="0.0000" type="priority" />
	<node id="25416570" x="504951.3829" y="4285446.4323" z="0.0000" type="priority" />
	<node id="254812016" x="505364.9983" y="4284922.3428" z="0.0000" type="priority" />
	<node id="4075536137" x="505078.3562" y="4285629.5392" z="0.0000" type="priority" />
	<node id="25416571" x="504931.5410" y="4285479.8651" z="0.0000" type="priority" />
	<node id="254812015" x="505362.8773" y="4284883.1261" z="0.0000" type="priority" />
	<node id="25416572" x="504933.6166" y="4285511.4472" z="0.0000" type="priority" />
	<node id="254812018" x="505318.3957" y="4284978.0607" z="0.0000" type="priority" />
	<node id="4075536135" x="505091.1800" y="4285627.6832" z="0.0000" type="priority" />
	<node id="25416573" x="504958.7817" y="4285543.0437" z="0.0000" type="priority" />
	<node id="254812017" x="505351.4590" y="4284952.1502" z="0.0000" type="priority" />
	<node id="4075536134" x="504976.9203" y="4285550.2234" z="0.0000" type="priority" />
	<node id="4075536139" x="505152.4032" y="4285794.4597" z="0.0000" type="priority" />
	<node id="4075536138" x="505127.4703" y="4285769.1323" z="0.0000" type="priority" />
	<node id="4385535691" x="505666.8325" y="4285371.0309" z="0.0000" type="priority" />
	<node id="4385535690" x="505536.2465" y="4285395.8176" z="0.0000" type="priority" />
	<node id="4385535693" x="505583.6746" y="4285364.0479" z="0.0000" type="priority" />
	<node id="4385535692" x="505495.2045" y="4285370.1893" z="0.0000" type="priority" />
	<node id="4385535695" x="505676.4528" y="4285363.6363" z="0.0000" type="priority" />
	<node id="4385535694" x="505623.7086" y="4285364.0761" z="0.0000" type="priority" />
	<node id="4385535697" x="505730.0318" y="4285375.0709" z="0.0000" type="priority" />
	<node id="4385535696" x="505712.4064" y="4285367.9564" z="0.0000" type="priority" />
	<node id="4385535699" x="505046.9036" y="4285492.8094" z="0.0000" type="priority" />
	<node id="4385535698" x="505049.2927" y="4285454.2392" z="0.0000" type="priority" />
	<node id="244451560" x="505084.4953" y="4285286.5036" z="0.0000" type="priority" />
	<node id="244451561" x="505075.6949" y="4285331.2393" z="0.0000" type="priority" />
	<node id="244451562" x="505065.2512" y="4285444.7506" z="0.0000" type="priority" />
	<node id="254812023" x="504968.4187" y="4285173.2342" z="0.0000" type="priority" />
	<node id="254812022" x="505017.8261" y="4285117.0056" z="0.0000" type="priority" />
	<node id="254812025" x="504774.4940" y="4285450.5299" z="0.0000" type="priority" />
	<node id="254812024" x="504837.2204" y="4285374.0901" z="0.0000" type="priority" />
	<node id="254812026" x="504750.9820" y="4285458.5719" z="0.0000" type="priority" />
	<node id="262245483" x="505103.6024" y="4285668.8483" z="0.0000" type="priority" />
	<node id="254812028" x="504714.7292" y="4285460.3258" z="0.0000" type="priority" />
	<node id="254812021" x="505056.9660" y="4285089.2889" z="0.0000" type="priority" />
	<node id="254812020" x="505197.7337" y="4285028.2152" z="0.0000" type="priority" />
	<node id="4385535585" x="505531.1084" y="4285396.1136" z="0.0000" type="priority" />
	<node id="4385535587" x="505363.7661" y="4285422.3424" z="0.0000" type="priority" />
	<node id="262246901" x="505125.6073" y="4285057.4856" z="0.0000" type="priority" />
	<node id="4385535586" x="505257.1128" y="4285437.3515" z="0.0000" type="priority" />
	<node id="4385535588" x="505460.1250" y="4285409.6579" z="0.0000" type="priority" />
	<node id="25416589" x="505022.1505" y="4285263.0170" z="0.0000" type="priority" />
	<node id="262246586" x="505149.9508" y="4284922.1898" z="0.0000" type="priority" />
	<node id="262246587" x="505206.3750" y="4284829.4703" z="0.0000" type="priority" />
	<node id="25416592" x="504921.4030" y="4285285.2582" z="0.0000" type="priority" />
	<node id="262246582" x="505344.2443" y="4284846.5171" z="0.0000" type="priority" />
	<node id="25416593" x="504910.1882" y="4285327.5070" z="0.0000" type="priority" />
	<node id="25416594" x="504923.4485" y="4285365.5986" z="0.0000" type="priority" />
	<node id="25416595" x="504959.3444" y="4285393.2514" z="0.0000" type="priority" />
	<node id="25416590" x="504988.8088" y="4285251.3890" z="0.0000" type="priority" />
	<node id="262246580" x="505288.9942" y="4284687.5331" z="0.0000" type="priority" />
	<node id="25416591" x="504948.2304" y="4285259.2533" z="0.0000" type="priority" />
	<node id="254812030" x="504626.2648" y="4285429.7695" z="0.0000" type="priority" />
	<node id="4386405026" x="505133.6065" y="4285797.8653" z="0.0000" type="priority" />
	<node id="4386405027" x="505184.4528" y="4285917.6082" z="0.0000" type="priority" />
	<node id="4386405028" x="505119.3283" y="4285709.6716" z="0.0000" type="priority" />
	<node id="4386405029" x="505146.2760" y="4285765.4271" z="0.0000" type="priority" />
	<node id="4386405020" x="505028.1453" y="4285434.2963" z="0.0000" type="priority" />
	<node id="4386405021" x="505090.5978" y="4285436.8439" z="0.0000" type="priority" />
	<node id="4386405022" x="505176.0384" y="4285435.5230" z="0.0000" type="priority" />
	<node id="4386405023" x="505203.5635" y="4285433.3327" z="0.0000" type="priority" />
	<node id="4386405024" x="505220.8342" y="4285425.0659" z="0.0000" type="priority" />
	<node id="4386405025" x="505102.7619" y="4285705.2889" z="0.0000" type="priority" />
	<node id="4075536067" x="505299.6968" y="4284766.0927" z="0.0000" type="priority" />
	<node id="4075536065" x="505297.3811" y="4284561.5150" z="0.0000" type="priority" />
	<node id="4075536069" x="505321.2286" y="4284849.9527" z="0.0000" type="priority" />
	<node id="4075536068" x="505328.3407" y="4284823.4811" z="0.0000" type="priority" />
	<node id="262246807" x="505350.2104" y="4284934.3061" z="0.0000" type="priority" />
	<node id="262246806" x="505329.9548" y="4284957.8949" z="0.0000" type="priority" />
	<node id="262246809" x="505351.4101" y="4284882.5636" z="0.0000" type="priority" />
	<node id="262246808" x="505355.8706" y="4284907.8335" z="0.0000" type="priority" />
	<node id="262246803" x="505129.3880" y="4285045.6924" z="0.0000" type="priority" />
	<node id="262246802" x="505053.4500" y="4285081.3970" z="0.0000" type="priority" />
	<node id="4386405030" x="505157.3337" y="4285792.2103" z="0.0000" type="priority" />
	<node id="262246805" x="505311.3316" y="4284971.8086" z="0.0000" type="priority" />
	<node id="4386405031" x="505157.8628" y="4285807.4019" z="0.0000" type="priority" />
	<node id="262246804" x="505201.0014" y="4285016.7102" z="0.0000" type="priority" />
	<node id="262246249" x="505052.6484" y="4285440.4039" z="0.0000" type="priority" />
	<node id="262246248" x="505057.8977" y="4285525.0741" z="0.0000" type="priority" />
	<node id="4385535689" x="505525.7756" y="4285401.2920" z="0.0000" type="priority" />
	<node id="262246245" x="505099.9083" y="4285722.2982" z="0.0000" type="priority" />
	<node id="262246244" x="505196.2549" y="4285935.4703" z="0.0000" type="priority" />
	<node id="262246247" x="505067.8121" y="4285587.2434" z="0.0000" type="priority" />
	<node id="262246246" x="505091.1519" y="4285671.6034" z="0.0000" type="priority" />
	<node id="30043853" x="505304.2941" y="4286152.5131" z="0.0000" type="priority" />
	<node id="4386387170" x="504266.7159" y="4285435.0504" z="0.0000" type="priority" />
	<node id="30043855" x="505182.1226" y="4285864.8646" z="0.0000" type="priority" />
	<node id="4386387172" x="504388.6741" y="4285408.7734" z="0.0000" type="priority" />
	<node id="4386387171" x="504012.6913" y="4285505.1930" z="0.0000" type="priority" />
	<node id="244451644" x="505235.0159" y="4285989.7358" z="0.0000" type="priority" />
	<node id="30043851" x="505389.2155" y="4286354.6834" z="0.0000" type="priority" />
	<node id="254812746" x="504743.7098" y="4285349.2996" z="0.0000" type="priority" />
	<node id="4075536081" x="504968.0645" y="4285253.2624" z="0.0000" type="priority" />
	<node id="4386387178" x="504437.4514" y="4285428.1418" z="0.0000" type="priority" />
	<node id="262246813" x="505254.3253" y="4284852.8600" z="0.0000" type="priority" />
	<node id="4075536080" x="505111.0869" y="4285236.0201" z="0.0000" type="priority" />
	<node id="4386387177" x="504499.9305" y="4285414.8166" z="0.0000" type="priority" />
	<node id="254812748" x="504900.3761" y="4285251.9777" z="0.0000" type="priority" />
	<node id="254812747" x="504809.2882" y="4285330.5747" z="0.0000" type="priority" />
	<node id="4386387179" x="504501.2051" y="4285420.6985" z="0.0000" type="priority" />
	<node id="30043857" x="505126.5942" y="4285712.1952" z="0.0000" type="priority" />
	<node id="262246810" x="505335.0034" y="4284858.0292" z="0.0000" type="priority" />
	<node id="4075536085" x="505118.5130" y="4285287.5795" z="0.0000" type="priority" />
	<node id="4386387174" x="504452.5337" y="4285398.6888" z="0.0000" type="priority" />
	<node id="254812749" x="504959.8105" y="4285161.3555" z="0.0000" type="priority" />
	<node id="4075536084" x="505038.4759" y="4285278.8510" z="0.0000" type="priority" />
	<node id="4386387173" x="504327.6909" y="4285421.3347" z="0.0000" type="priority" />
	<node id="262246812" x="505277.4144" y="4284843.4543" z="0.0000" type="priority" />
	<node id="4075536083" x="504931.9135" y="4285271.3607" z="0.0000" type="priority" />
	<node id="4386387176" x="504434.1772" y="4285422.4363" z="0.0000" type="priority" />
	<node id="262246811" x="505305.1663" y="4284843.1509" z="0.0000" type="priority" />
	<node id="4075536082" x="505005.6111" y="4285255.6051" z="0.0000" type="priority" />
	<node id="4386387175" x="504290.6029" y="4285440.2010" z="0.0000" type="priority" />
	<node id="4075536089" x="504915.3125" y="4285349.6034" z="0.0000" type="priority" />
	<node id="262246255" x="505234.8373" y="4284806.6300" z="0.0000" type="priority" />
	<node id="4075536088" x="504777.5935" y="4285341.3636" z="0.0000" type="priority" />
	<node id="262247105" x="504802.0702" y="4285392.1119" z="0.0000" type="priority" />
	<node id="4075536087" x="505143.6704" y="4285331.0166" z="0.0000" type="priority" />
	<node id="4075536086" x="504912.5399" y="4285306.1808" z="0.0000" type="priority" />
	<node id="262246252" x="505100.5309" y="4285184.6029" z="0.0000" type="priority" />
	<node id="262246251" x="505071.7185" y="4285282.0568" z="0.0000" type="priority" />
	<node id="262246254" x="505185.2146" y="4284947.8124" z="0.0000" type="priority" />
	<node id="262246253" x="505130.8487" y="4285099.6116" z="0.0000" type="priority" />
	<node id="25423008" x="504403.1873" y="4285417.9583" z="0.0000" type="priority" />
	<node id="30043842" x="505660.8544" y="4287310.3558" z="0.0000" type="priority" />
	<node id="4386387180" x="504326.8375" y="4285440.0763" z="0.0000" type="priority" />
	<node id="30043844" x="505532.1669" y="4286775.3203" z="0.0000" type="priority" />
	<node id="30043840" x="505715.9035" y="4287531.7948" z="0.0000" type="priority" />
	<node id="4075536070" x="505232.6001" y="4284877.0695" z="0.0000" type="priority" />
	<node id="30043846" x="505501.8197" y="4286666.8744" z="0.0000" type="priority" />
	<node id="4075536074" x="505342.3863" y="4284946.3406" z="0.0000" type="priority" />
	<node id="30043847" x="505464.4346" y="4286553.1196" z="0.0000" type="priority" />
	<node id="4075536073" x="505358.8147" y="4284938.4509" z="0.0000" type="priority" />
	<node id="4075536072" x="505366.2979" y="4284903.1577" z="0.0000" type="priority" />
	<node id="30043849" x="505427.9412" y="4286455.7553" z="0.0000" type="priority" />
	<node id="4075536071" x="505179.1138" y="4284877.2898" z="0.0000" type="priority" />
	<node id="4075536078" x="504966.2844" y="4285152.2492" z="0.0000" type="priority" />
	<node id="4075536077" x="505094.6572" y="4285070.6596" z="0.0000" type="priority" />
	<node id="4385535539" x="506217.0264" y="4288304.2511" z="0.0000" type="priority" />
	<node id="4075536076" x="505089.7677" y="4285062.5338" z="0.0000" type="priority" />
	<node id="254812750" x="505088.4318" y="4285017.0814" z="0.0000" type="priority" />
	<node id="4075536075" x="505335.4691" y="4284967.4749" z="0.0000" type="priority" />
	<node id="254812753" x="505270.2728" y="4284638.7845" z="0.0000" type="priority" />
	<node id="4075536079" x="504990.7015" y="4285144.4414" z="0.0000" type="priority" />
	<node id="30043832" x="505862.6295" y="4287837.2360" z="0.0000" type="priority" />
	<node id="30043834" x="505819.4185" y="4287765.8863" z="0.0000" type="priority" />
	<node id="25416619" x="505161.4451" y="4285484.4161" z="0.0000" type="priority" />
	<node id="30043830" x="505905.9305" y="4287903.4038" z="0.0000" type="priority" />
	<node id="25417947" x="507688.7178" y="4285142.8496" z="0.0000" type="priority" />
	<node id="262246957" x="505114.1534" y="4285212.6749" z="0.0000" type="priority" />
	<node id="25416616" x="505103.7015" y="4285622.7754" z="0.0000" type="priority" />
	<node id="25417946" x="507848.5242" y="4284934.7005" z="0.0000" type="priority" />
	<node id="262246956" x="505137.3692" y="4285126.2697" z="0.0000" type="priority" />
	<node id="25416617" x="505107.9914" y="4285575.6510" z="0.0000" type="priority" />
	<node id="25417949" x="507381.1180" y="4285474.8678" z="0.0000" type="priority" />
	<node id="25416618" x="505125.7375" y="4285530.6103" z="0.0000" type="priority" />
	<node id="25417948" x="507673.7859" y="4285129.5637" z="0.0000" type="priority" />
	<node id="262246958" x="505437.0770" y="4285373.6116" z="0.0000" type="priority" />
	<node id="25417943" x="507965.3717" y="4284804.9200" z="0.0000" type="priority" />
	<node id="25417942" x="508014.8072" y="4284666.3845" z="0.0000" type="priority" />
	<node id="30043836" x="505786.4820" y="4287714.9732" z="0.0000" type="priority" />
	<node id="25417945" x="507864.2047" y="4284947.1441" z="0.0000" type="priority" />
	<node id="25417944" x="507948.2284" y="4284794.5276" z="0.0000" type="priority" />
	<node id="30043838" x="505746.4246" y="4287619.4800" z="0.0000" type="priority" />
	<node id="25417950" x="507368.9357" y="4285459.0439" z="0.0000" type="priority" />
	<node id="25416620" x="505206.0102" y="4285454.0294" z="0.0000" type="priority" />
	<node id="25417952" x="507262.4185" y="4285540.4171" z="0.0000" type="priority" />
	<node id="25417951" x="507273.6439" y="4285556.9613" z="0.0000" type="priority" />
	<node id="30043820" x="506150.9381" y="4288234.2133" z="0.0000" type="priority" />
	<node id="30043822" x="506131.9733" y="4288214.5910" z="0.0000" type="priority" />
	<node id="25417939" x="508090.4410" y="4284536.3093" z="0.0000" type="priority" />
	<node id="244451557" x="505280.9365" y="4284671.5709" z="0.0000" type="priority" />
	<node id="244451558" x="505206.2611" y="4284937.2067" z="0.0000" type="priority" />
	<node id="244451559" x="505146.1755" y="4285100.3427" z="0.0000" type="priority" />
	<node id="4075536092" x="505577.4710" y="4285371.4006" z="0.0000" type="priority" />
	<node id="4075536091" x="505629.4675" y="4285370.9822" z="0.0000" type="priority" />
	<node id="25417938" x="508116.1155" y="4284366.0364" z="0.0000" type="priority" />
	<node id="4075536090" x="505176.7643" y="4285361.9309" z="0.0000" type="priority" />
	<node id="25417937" x="508134.1810" y="4284368.0189" z="0.0000" type="priority" />
	<node id="4075536096" x="504938.3737" y="4285382.3637" z="0.0000" type="priority" />
	<node id="4075536095" x="505223.3839" y="4285381.4692" z="0.0000" type="priority" />
	<node id="30043826" x="506004.9667" y="4288047.2569" z="0.0000" type="priority" />
	<node id="4075536094" x="505763.5436" y="4285377.8137" z="0.0000" type="priority" />
	<node id="4075536093" x="504544.0804" y="4285376.9912" z="0.0000" type="priority" />
	<node id="262246960" x="505103.2377" y="4285220.5131" z="0.0000" type="priority" />
	<node id="4075536099" x="505578.6215" y="4285391.9189" z="0.0000" type="priority" />
	<node id="25417941" x="508032.9786" y="4284674.7918" z="0.0000" type="priority" />
	<node id="4075536098" x="504702.1672" y="4285386.6039" z="0.0000" type="priority" />
	<node id="25417940" x="508071.4501" y="4284529.8873" z="0.0000" type="priority" />
	<node id="4075536097" x="505272.5870" y="4285385.2189" z="0.0000" type="priority" />
	<node id="262247255" x="505053.1578" y="4285308.9986" z="0.0000" type="priority" />
</nodes>
