<?xml version="1.0" encoding="UTF-8"?>

<!-- generated on Mon Jul 20 14:54:40 2020 by Eclipse SUMO netconvert Version 1.2.0
<configuration xmlns:xsi="http://www.w3.org/2001/XMLSchema-instance" xsi:noNamespaceSchemaLocation="http://sumo.dlr.de/xsd/netconvertConfiguration.xsd">

    <input>
        <node-files value="/home/vsimrti/scenarios/ids/sumo/gualtar20/gualtar20.nod.xml"/>
        <edge-files value="/home/vsimrti/scenarios/ids/sumo/gualtar20/gualtar20.edg.xml"/>
        <connection-files value="/home/vsimrti/scenarios/ids/sumo/gualtar20/gualtar20.con.xml"/>
    </input>

    <output>
        <output-file value="/home/vsimrti/scenarios/ids/sumo/gualtar20/gualtar20.net.xml"/>
    </output>

</configuration>
-->

<net version="1.1" junctionCornerDetail="5" limitTurnSpeed="5.50" xmlns:xsi="http://www.w3.org/2001/XMLSchema-instance" xsi:noNamespaceSchemaLocation="http://sumo.dlr.de/xsd/net_file.xsd">

    <location netOffset="-503969.19,-4284366.04" convBoundary="0.00,0.00,4164.99,3967.46" origBoundary="503969.19,4284366.04,508134.18,4288333.49" projParameter="!"/>

    <edge id=":244451557_0" function="internal">
        <lane id=":244451557_0_0" index="0" speed="36.11" length="3.19" shape="1316.94,303.28 1316.44,306.53"/>
        <lane id=":244451557_0_1" index="1" speed="36.11" length="3.19" shape="1313.77,302.80 1313.31,305.86"/>
    </edge>
    <edge id=":244451558_0" function="internal">
        <lane id=":244451558_0_0" index="0" speed="27.77" length="19.23" shape="1248.36,559.43 1246.22,564.61 1245.41,568.40 1244.79,572.27 1243.20,577.69"/>
        <lane id=":244451558_0_1" index="1" speed="27.77" length="19.23" shape="1245.51,557.99 1243.31,563.26 1242.47,567.12 1241.82,571.06 1240.19,576.58"/>
    </edge>
    <edge id=":244451558_2" function="internal">
        <lane id=":244451558_2_0" index="0" speed="36.11" length="31.74" shape="1247.77,545.59 1246.38,552.57 1245.10,559.47 1243.25,567.17 1240.19,576.58"/>
        <lane id=":244451558_2_1" index="1" speed="36.11" length="31.74" shape="1244.64,544.88 1243.28,551.80 1242.04,558.56 1240.23,566.13 1237.19,575.48"/>
    </edge>
    <edge id=":244451559_0" function="internal">
        <lane id=":244451559_0_0" index="0" speed="36.11" length="0.27" shape="1184.56,736.89 1184.50,737.07"/>
        <lane id=":244451559_0_1" index="1" speed="36.11" length="0.27" shape="1181.56,735.78 1181.47,736.04"/>
        <lane id=":244451559_0_2" index="2" speed="36.11" length="0.27" shape="1178.56,734.67 1178.44,735.01"/>
    </edge>
    <edge id=":244451560_0" function="internal">
        <lane id=":244451560_0_0" index="0" speed="36.11" length="0.26" shape="1120.00,921.52 1119.97,921.65"/>
        <lane id=":244451560_0_1" index="1" speed="36.11" length="0.26" shape="1116.92,920.65 1116.83,921.04"/>
    </edge>
    <edge id=":244451561_0" function="internal">
        <lane id=":244451561_0_0" index="0" speed="36.11" length="0.23" shape="1111.26,965.90 1111.24,966.02"/>
        <lane id=":244451561_0_1" index="1" speed="36.11" length="0.23" shape="1108.12,965.28 1108.07,965.63"/>
    </edge>
    <edge id=":244451562_0" function="internal">
        <lane id=":244451562_0_0" index="0" speed="31.95" length="0.40" shape="1100.88,1078.59 1100.87,1078.64 1100.87,1078.69 1100.87,1078.73 1100.88,1078.79"/>
        <lane id=":244451562_0_1" index="1" speed="31.95" length="0.40" shape="1097.68,1078.40 1097.67,1078.58 1097.67,1078.70 1097.67,1078.83 1097.69,1079.00"/>
    </edge>
    <edge id=":244451644_0" function="internal">
        <lane id=":244451644_0_0" index="0" speed="27.78" length="0.30" shape="1270.18,1621.66 1270.30,1621.95"/>
        <lane id=":244451644_0_1" index="1" speed="27.78" length="0.30" shape="1267.24,1622.94 1267.35,1623.20"/>
    </edge>
    <edge id=":244451757_0" function="internal">
        <lane id=":244451757_0_0" index="0" speed="27.78" length="0.26" shape="1117.38,1218.57 1117.42,1218.76"/>
        <lane id=":244451757_0_1" index="1" speed="27.78" length="0.26" shape="1114.23,1219.12 1114.30,1219.45"/>
    </edge>
    <edge id=":244451758_0" function="internal">
        <lane id=":244451758_0_0" index="0" speed="27.78" length="0.33" shape="1105.94,1152.40 1105.94,1152.44 1105.94,1152.48 1105.95,1152.51 1105.96,1152.56"/>
        <lane id=":244451758_0_1" index="1" speed="27.78" length="0.33" shape="1102.74,1152.62 1102.75,1152.76 1102.76,1152.86 1102.78,1152.96 1102.80,1153.11"/>
    </edge>
    <edge id=":25416560_0" function="internal">
        <lane id=":25416560_0_0" index="0" speed="19.44" length="0.84" shape="1055.92,1249.87 1055.83,1249.79 1055.76,1249.73 1055.69,1249.69 1055.58,1249.63"/>
        <lane id=":25416560_0_1" index="1" speed="19.44" length="0.84" shape="1058.10,1247.53 1057.83,1247.28 1057.63,1247.12 1057.41,1246.98 1057.08,1246.80"/>
    </edge>
    <edge id=":25416561_0" function="internal">
        <lane id=":25416561_0_0" index="0" speed="19.44" length="3.50" shape="1010.64,1225.85 1009.68,1225.30 1009.07,1224.84 1008.49,1224.35 1007.61,1223.65"/>
        <lane id=":25416561_0_1" index="1" speed="19.44" length="3.50" shape="1012.14,1223.02 1011.31,1222.54 1010.78,1222.14 1010.28,1221.70 1009.53,1221.09"/>
    </edge>
    <edge id=":25416562_0" function="internal">
        <lane id=":25416562_0_0" index="0" speed="19.44" length="0.71" shape="965.26,1191.98 965.01,1191.79 964.85,1191.65 964.70,1191.49 964.49,1191.25"/>
        <lane id=":25416562_0_1" index="1" speed="19.44" length="0.71" shape="967.18,1189.42 967.10,1189.35 967.04,1189.31 966.99,1189.25 966.92,1189.17"/>
    </edge>
    <edge id=":25416563_0" function="internal">
        <lane id=":25416563_0_0" index="0" speed="19.44" length="0.29" shape="928.57,1138.50 928.44,1138.25"/>
        <lane id=":25416563_0_1" index="1" speed="19.44" length="0.29" shape="931.39,1136.99 931.25,1136.72"/>
    </edge>
    <edge id=":25416564_0" function="internal">
        <lane id=":25416564_0_0" index="0" speed="19.44" length="0.52" shape="893.05,1086.63 893.00,1086.57 892.96,1086.53 892.93,1086.49 892.87,1086.44"/>
        <lane id=":25416564_0_1" index="1" speed="19.44" length="0.52" shape="895.50,1084.56 895.34,1084.38 895.24,1084.27 895.12,1084.16 894.94,1084.01"/>
    </edge>
    <edge id=":25416570_0" function="internal">
        <lane id=":25416570_0_0" index="0" speed="19.44" length="1.62" shape="985.58,1084.17 985.36,1084.27 985.22,1084.35 985.10,1084.47 984.95,1084.65"/>
        <lane id=":25416570_0_1" index="1" speed="7.76" length="1.62" shape="984.33,1081.23 983.67,1081.52 983.25,1081.77 982.89,1082.12 982.44,1082.67"/>
    </edge>
    <edge id=":25416571_0" function="internal">
        <lane id=":25416571_0_0" index="0" speed="19.44" length="1.04" shape="967.18,1114.73 967.12,1114.87 967.09,1114.97 967.07,1115.08 967.06,1115.23"/>
        <lane id=":25416571_0_1" index="1" speed="12.06" length="1.04" shape="964.23,1113.49 964.06,1113.91 963.96,1114.22 963.91,1114.53 963.87,1114.99"/>
    </edge>
    <edge id=":25416572_0" function="internal">
        <lane id=":25416572_0_0" index="0" speed="19.44" length="0.78" shape="968.96,1143.64 968.98,1143.75 969.00,1143.83 969.03,1143.90 969.08,1144.01"/>
        <lane id=":25416572_0_1" index="1" speed="19.44" length="0.78" shape="965.83,1144.31 965.90,1144.65 965.97,1144.88 966.06,1145.10 966.21,1145.41"/>
    </edge>
    <edge id=":25416573_0" function="internal">
        <lane id=":25416573_0_0" index="0" speed="19.44" length="0.94" shape="991.83,1172.66 991.94,1172.74 992.02,1172.80 992.11,1172.84 992.24,1172.89"/>
        <lane id=":25416573_0_1" index="1" speed="15.96" length="0.94" shape="989.85,1175.17 990.18,1175.42 990.41,1175.58 990.67,1175.71 991.06,1175.87"/>
    </edge>
    <edge id=":25416574_0" function="internal">
        <lane id=":25416574_0_0" index="0" speed="19.44" length="0.89" shape="1025.26,1179.21 1025.40,1179.21 1025.49,1179.20 1025.57,1179.18 1025.70,1179.14"/>
        <lane id=":25416574_0_1" index="1" speed="19.44" length="0.89" shape="1025.30,1182.41 1025.69,1182.40 1025.96,1182.38 1026.23,1182.32 1026.61,1182.21"/>
    </edge>
    <edge id=":25416575_0" function="internal">
        <lane id=":25416575_0_0" index="0" speed="19.44" length="1.09" shape="1056.15,1164.67 1056.29,1164.57 1056.37,1164.50 1056.44,1164.42 1056.54,1164.29"/>
        <lane id=":25416575_0_1" index="1" speed="10.98" length="1.09" shape="1057.97,1167.30 1058.37,1167.02 1058.62,1166.81 1058.84,1166.56 1059.13,1166.17"/>
    </edge>
    <edge id=":25416588_0" function="internal">
        <lane id=":25416588_0_0" index="0" speed="19.44" length="0.75" shape="1074.30,929.69 1074.26,929.59 1074.23,929.52 1074.20,929.45 1074.14,929.36"/>
        <lane id=":25416588_0_1" index="1" speed="19.44" length="0.75" shape="1077.32,928.65 1077.21,928.33 1077.12,928.12 1077.01,927.92 1076.83,927.64"/>
    </edge>
    <edge id=":25416589_0" function="internal">
        <lane id=":25416589_0_0" index="0" speed="19.44" length="1.12" shape="1050.43,901.21 1050.31,901.10 1050.22,901.03 1050.12,900.97 1049.97,900.90"/>
        <lane id=":25416589_0_1" index="1" speed="10.52" length="1.12" shape="1052.66,898.91 1052.30,898.57 1052.03,898.36 1051.73,898.19 1051.28,897.98"/>
    </edge>
    <edge id=":25416590_0" function="internal">
        <lane id=":25416590_0_0" index="0" speed="19.44" length="1.08" shape="1019.50,890.27 1019.35,890.24 1019.24,890.22 1019.13,890.22 1018.97,890.23"/>
        <lane id=":25416590_0_1" index="1" speed="11.16" length="1.08" shape="1020.28,887.17 1019.82,887.06 1019.49,887.01 1019.16,887.01 1018.68,887.04"/>
    </edge>
    <edge id=":25416591_0" function="internal">
        <lane id=":25416591_0_0" index="0" speed="19.44" length="1.11" shape="981.50,897.49 981.34,897.54 981.24,897.58 981.14,897.64 981.01,897.74"/>
        <lane id=":25416591_0_1" index="1" speed="10.69" length="1.11" shape="980.57,894.43 980.10,894.57 979.79,894.70 979.50,894.88 979.10,895.17"/>
    </edge>
    <edge id=":25416592_0" function="internal">
        <lane id=":25416592_0_0" index="0" speed="19.44" length="0.79" shape="956.52,921.48 956.45,921.58 956.41,921.65 956.37,921.72 956.32,921.83"/>
        <lane id=":25416592_0_1" index="1" speed="19.44" length="0.79" shape="953.97,919.55 953.76,919.84 953.63,920.04 953.52,920.25 953.38,920.58"/>
    </edge>
    <edge id=":25416593_0" function="internal">
        <lane id=":25416593_0_0" index="0" speed="19.44" length="1.08" shape="945.89,960.91 945.87,961.07 945.87,961.18 945.89,961.29 945.92,961.45"/>
        <lane id=":25416593_0_1" index="1" speed="11.06" length="1.08" shape="942.71,960.56 942.66,961.04 942.66,961.37 942.70,961.70 942.80,962.17"/>
    </edge>
    <edge id=":25416594_0" function="internal">
        <lane id=":25416594_0_0" index="0" speed="19.44" length="0.82" shape="958.16,996.65 958.22,996.76 958.26,996.83 958.31,996.90 958.39,996.99"/>
        <lane id=":25416594_0_1" index="1" speed="19.44" length="0.82" shape="955.31,998.10 955.48,998.43 955.61,998.64 955.76,998.84 956.00,999.12"/>
    </edge>
    <edge id=":25416595_0" function="internal">
        <lane id=":25416595_0_0" index="0" speed="19.44" length="0.62" shape="991.82,1022.67 991.90,1022.71 991.96,1022.74 992.02,1022.76 992.10,1022.78"/>
        <lane id=":25416595_0_1" index="1" speed="19.44" length="0.62" shape="990.34,1025.51 990.59,1025.63 990.76,1025.71 990.94,1025.78 991.20,1025.85"/>
    </edge>
    <edge id=":25416616_0" function="internal">
        <lane id=":25416616_0_0" index="0" speed="19.44" length="0.36" shape="1136.14,1256.53 1136.13,1256.63 1136.13,1256.70 1136.13,1256.78 1136.15,1256.88"/>
    </edge>
    <edge id=":25416617_0" function="internal">
        <lane id=":25416617_0_0" index="0" speed="19.44" length="0.46" shape="1140.46,1209.77 1140.41,1209.90 1140.38,1209.99 1140.37,1210.08 1140.35,1210.22"/>
    </edge>
    <edge id=":25416618_0" function="internal">
        <lane id=":25416618_0_0" index="0" speed="19.44" length="0.31" shape="1158.06,1165.17 1158.02,1165.25 1157.98,1165.30 1157.96,1165.36 1157.93,1165.44"/>
    </edge>
    <edge id=":25416619_0" function="internal">
        <lane id=":25416619_0_0" index="0" speed="19.44" length="0.25" shape="1193.45,1119.47 1193.39,1119.52 1193.36,1119.55 1193.32,1119.59 1193.27,1119.64"/>
    </edge>
    <edge id=":25416620_0" function="internal">
        <lane id=":25416620_0_0" index="0" speed="19.44" length="0.26" shape="1237.63,1089.40 1237.55,1089.43 1237.50,1089.45 1237.46,1089.47 1237.39,1089.51"/>
    </edge>
    <edge id=":25416623_0" function="internal">
        <lane id=":25416623_0_0" index="0" speed="19.44" length="0.61" shape="1147.51,892.07 1147.51,892.16 1147.52,892.22 1147.53,892.28 1147.55,892.37"/>
        <lane id=":25416623_0_1" index="1" speed="19.44" length="0.61" shape="1144.31,892.19 1144.32,892.46 1144.34,892.64 1144.37,892.82 1144.43,893.09"/>
    </edge>
    <edge id=":25416624_0" function="internal">
        <lane id=":25416624_0_0" index="0" speed="19.44" length="0.81" shape="1164.50,944.31 1164.55,944.42 1164.59,944.49 1164.63,944.56 1164.71,944.66"/>
        <lane id=":25416624_0_1" index="1" speed="19.44" length="0.81" shape="1161.57,945.59 1161.72,945.92 1161.83,946.14 1161.97,946.34 1162.19,946.62"/>
    </edge>
    <edge id=":25416625_0" function="internal">
        <lane id=":25416625_0_0" index="0" speed="19.44" length="0.61" shape="1192.28,977.97 1192.34,978.04 1192.39,978.08 1192.44,978.12 1192.51,978.18"/>
        <lane id=":25416625_0_1" index="1" speed="19.44" length="0.61" shape="1189.88,980.08 1190.06,980.29 1190.19,980.42 1190.33,980.54 1190.55,980.71"/>
    </edge>
    <edge id=":25416626_0" function="internal">
        <lane id=":25416626_0_0" index="0" speed="19.44" length="0.52" shape="1232.55,1003.35 1232.62,1003.39 1232.67,1003.41 1232.72,1003.43 1232.79,1003.45"/>
        <lane id=":25416626_0_1" index="1" speed="19.44" length="0.52" shape="1231.08,1006.20 1231.29,1006.30 1231.43,1006.37 1231.58,1006.43 1231.80,1006.50"/>
    </edge>
    <edge id=":25416627_0" function="internal">
        <lane id=":25416627_0_0" index="0" speed="19.44" length="0.19" shape="1280.32,1013.32 1280.41,1013.33"/>
        <lane id=":25416627_0_1" index="1" speed="19.44" length="0.19" shape="1279.99,1016.50 1280.26,1016.52"/>
    </edge>
    <edge id=":25416628_0" function="internal">
        <lane id=":25416628_0_0" index="0" speed="19.44" length="0.27" shape="1344.16,1012.22 1344.40,1012.20"/>
        <lane id=":25416628_0_1" index="1" speed="19.44" length="0.27" shape="1344.33,1015.41 1344.64,1015.39"/>
    </edge>
    <edge id=":25417939_0" function="internal">
        <lane id=":25417939_0_0" index="0" speed="33.33" length="3.67" shape="4128.99,172.29 4128.65,173.45 4128.34,174.23 4127.99,174.99 4127.49,176.11"/>
        <lane id=":25417939_0_1" index="1" speed="33.33" length="3.67" shape="4125.90,171.48 4125.59,172.52 4125.31,173.21 4124.98,173.89 4124.54,174.88"/>
        <lane id=":25417939_0_2" index="2" speed="33.33" length="3.67" shape="4122.80,170.68 4122.53,171.59 4122.27,172.19 4121.97,172.78 4121.58,173.66"/>
    </edge>
    <edge id=":25417940_0" function="internal">
        <lane id=":25417940_0_0" index="0" speed="33.33" length="0.61" shape="4094.64,161.35 4094.66,161.29 4094.68,161.25 4094.69,161.22 4094.70,161.16"/>
        <lane id=":25417940_0_1" index="1" speed="33.33" length="0.61" shape="4097.59,162.58 4097.66,162.41 4097.71,162.29 4097.74,162.17 4097.79,162.00"/>
        <lane id=":25417940_0_2" index="2" speed="33.33" length="0.61" shape="4100.55,163.80 4100.66,163.52 4100.74,163.33 4100.80,163.13 4100.88,162.84"/>
    </edge>
    <edge id=":25417941_0" function="internal">
        <lane id=":25417941_0_0" index="0" speed="33.33" length="3.41" shape="4071.18,311.82 4069.51,315.11"/>
        <lane id=":25417941_0_1" index="1" speed="33.33" length="3.41" shape="4068.22,310.60 4066.67,313.63"/>
        <lane id=":25417941_0_2" index="2" speed="33.33" length="3.41" shape="4065.27,309.37 4063.83,312.16"/>
    </edge>
    <edge id=":25417942_0" function="internal">
        <lane id=":25417942_0_0" index="0" speed="33.33" length="0.41" shape="4038.33,297.03 4038.39,296.90"/>
        <lane id=":25417942_0_1" index="1" speed="33.33" length="0.41" shape="4041.17,298.50 4041.34,298.13"/>
        <lane id=":25417942_0_2" index="2" speed="33.33" length="0.41" shape="4044.01,299.98 4044.30,299.35"/>
    </edge>
    <edge id=":25417943_0" function="internal">
        <lane id=":25417943_0_0" index="0" speed="33.33" length="3.67" shape="4004.66,439.91 4004.13,441.01 4003.77,441.77 4003.38,442.51 4002.70,443.52"/>
        <lane id=":25417943_0_1" index="1" speed="33.33" length="3.67" shape="4001.83,438.43 4001.35,439.42 4001.04,440.10 4000.69,440.76 4000.09,441.67"/>
        <lane id=":25417943_0_2" index="2" speed="33.33" length="3.67" shape="3998.99,436.96 3998.57,437.82 3998.31,438.43 3998.01,439.01 3997.49,439.81"/>
    </edge>
    <edge id=":25417944_0" function="internal">
        <lane id=":25417944_0_0" index="0" speed="33.33" length="0.67" shape="3972.13,424.40 3972.17,424.35 3972.20,424.31 3972.22,424.27 3972.25,424.21"/>
        <lane id=":25417944_0_1" index="1" speed="33.33" length="0.67" shape="3974.74,426.25 3974.85,426.09 3974.93,425.98 3975.00,425.86 3975.09,425.68"/>
        <lane id=":25417944_0_2" index="2" speed="33.33" length="0.67" shape="3977.35,428.11 3977.54,427.84 3977.66,427.65 3977.77,427.45 3977.93,427.16"/>
    </edge>
    <edge id=":25417945_0" function="internal">
        <lane id=":25417945_0_0" index="0" speed="33.33" length="3.54" shape="3901.53,585.74 3900.84,586.67 3900.32,587.26 3899.76,587.83 3898.97,588.68"/>
        <lane id=":25417945_0_1" index="1" speed="33.33" length="3.54" shape="3898.93,583.89 3898.29,584.73 3897.82,585.26 3897.31,585.78 3896.59,586.55"/>
        <lane id=":25417945_0_2" index="2" speed="33.33" length="3.54" shape="3896.32,582.04 3895.75,582.79 3895.31,583.26 3894.85,583.72 3894.20,584.41"/>
    </edge>
    <edge id=":25417946_0" function="internal">
        <lane id=":25417946_0_0" index="0" speed="33.33" length="0.54" shape="3873.02,563.73 3873.05,563.69 3873.08,563.66 3873.10,563.63 3873.13,563.59"/>
        <lane id=":25417946_0_1" index="1" speed="33.33" length="0.54" shape="3875.40,565.86 3875.51,565.74 3875.58,565.66 3875.64,565.57 3875.74,565.44"/>
        <lane id=":25417946_0_2" index="2" speed="33.33" length="0.54" shape="3877.78,568.00 3877.96,567.80 3878.08,567.66 3878.19,567.51 3878.35,567.30"/>
    </edge>
    <edge id=":25417947_0" function="internal">
        <lane id=":25417947_0_0" index="0" speed="33.33" length="0.29" shape="3725.55,782.08 3725.33,782.33"/>
        <lane id=":25417947_0_1" index="1" speed="33.33" length="0.29" shape="3723.17,779.94 3722.98,780.15"/>
        <lane id=":25417947_0_2" index="2" speed="33.33" length="0.29" shape="3720.79,777.80 3720.63,777.98"/>
    </edge>
    <edge id=":25417948_0" function="internal">
        <lane id=":25417948_0_0" index="0" speed="33.33" length="0.29" shape="3698.60,758.23 3698.76,758.05"/>
        <lane id=":25417948_0_1" index="1" speed="33.33" length="0.29" shape="3700.95,760.40 3701.14,760.19"/>
        <lane id=":25417948_0_2" index="2" speed="33.33" length="0.29" shape="3703.30,762.57 3703.53,762.32"/>
    </edge>
    <edge id=":25417949_0" function="internal">
        <lane id=":25417949_0_0" index="0" speed="33.33" length="3.83" shape="3419.84,1112.07 3418.98,1113.04 3418.41,1113.73 3417.79,1114.37 3416.79,1115.19"/>
        <lane id=":25417949_0_1" index="1" speed="33.33" length="3.83" shape="3417.49,1109.89 3416.74,1110.75 3416.25,1111.36 3415.71,1111.92 3414.84,1112.65"/>
        <lane id=":25417949_0_2" index="2" speed="33.33" length="3.83" shape="3415.14,1107.72 3414.51,1108.46 3414.09,1108.99 3413.64,1109.48 3412.90,1110.10"/>
    </edge>
    <edge id=":25417950_0" function="internal">
        <lane id=":25417950_0_0" index="0" speed="33.33" length="0.83" shape="3394.23,1087.15 3394.30,1087.10 3394.34,1087.07 3394.38,1087.03 3394.44,1086.97"/>
        <lane id=":25417950_0_1" index="1" speed="33.33" length="0.83" shape="3396.18,1089.70 3396.37,1089.55 3396.50,1089.44 3396.62,1089.32 3396.79,1089.14"/>
        <lane id=":25417950_0_2" index="2" speed="33.33" length="0.83" shape="3398.12,1092.24 3398.44,1091.99 3398.66,1091.81 3398.86,1091.61 3399.13,1091.31"/>
    </edge>
    <edge id=":25417951_0" function="internal">
        <lane id=":25417951_0_0" index="0" speed="33.33" length="3.58" shape="3311.70,1195.46 3310.77,1196.20 3310.15,1196.71 3309.51,1197.20 3308.51,1197.82"/>
        <lane id=":25417951_0_1" index="1" speed="33.33" length="3.58" shape="3309.75,1192.92 3308.92,1193.58 3308.37,1194.06 3307.79,1194.50 3306.89,1195.06"/>
        <lane id=":25417951_0_2" index="2" speed="33.33" length="3.58" shape="3307.81,1190.38 3307.07,1190.97 3306.58,1191.40 3306.07,1191.80 3305.27,1192.30"/>
    </edge>
    <edge id=":25417952_0" function="internal">
        <lane id=":25417952_0_0" index="0" speed="33.33" length="0.58" shape="3288.67,1167.78 3288.72,1167.75 3288.75,1167.73 3288.79,1167.71 3288.83,1167.67"/>
        <lane id=":25417952_0_1" index="1" speed="33.33" length="0.58" shape="3290.30,1170.54 3290.44,1170.45 3290.54,1170.39 3290.64,1170.32 3290.77,1170.22"/>
        <lane id=":25417952_0_2" index="2" speed="33.33" length="0.58" shape="3291.92,1173.30 3292.17,1173.15 3292.33,1173.04 3292.49,1172.93 3292.72,1172.76"/>
    </edge>
    <edge id=":25417953_0" function="internal">
        <lane id=":25417953_0_0" index="0" speed="33.33" length="3.37" shape="3227.43,1245.57 3224.19,1247.18"/>
        <lane id=":25417953_0_1" index="1" speed="33.33" length="3.37" shape="3225.81,1242.81 3222.79,1244.31"/>
        <lane id=":25417953_0_2" index="2" speed="33.33" length="3.37" shape="3224.18,1240.06 3221.38,1241.43"/>
    </edge>
    <edge id=":25417954_0" function="internal">
        <lane id=":25417954_0_0" index="0" speed="33.33" length="0.37" shape="3210.00,1214.10 3210.11,1214.04"/>
        <lane id=":25417954_0_1" index="1" speed="33.33" length="0.37" shape="3211.41,1216.98 3211.74,1216.80"/>
        <lane id=":25417954_0_2" index="2" speed="33.33" length="0.37" shape="3212.82,1219.85 3213.36,1219.56"/>
    </edge>
    <edge id=":25417955_0" function="internal">
        <lane id=":25417955_0_0" index="0" speed="33.33" length="3.53" shape="3164.36,1276.46 3163.34,1276.98 3162.64,1277.36 3161.93,1277.70 3160.86,1278.12"/>
        <lane id=":25417955_0_1" index="1" speed="33.33" length="3.53" shape="3162.96,1273.58 3162.03,1274.06 3161.40,1274.41 3160.75,1274.72 3159.78,1275.10"/>
        <lane id=":25417955_0_2" index="2" speed="33.33" length="3.53" shape="3161.55,1270.71 3160.71,1271.14 3160.15,1271.46 3159.57,1271.75 3158.69,1272.09"/>
    </edge>
    <edge id=":25417956_0" function="internal">
        <lane id=":25417956_0_0" index="0" speed="33.33" length="0.52" shape="3147.11,1244.86 3147.15,1244.84 3147.19,1244.83 3147.22,1244.81 3147.27,1244.79"/>
        <lane id=":25417956_0_1" index="1" speed="33.33" length="0.52" shape="3148.19,1247.87 3148.34,1247.81 3148.44,1247.77 3148.53,1247.73 3148.67,1247.66"/>
        <lane id=":25417956_0_2" index="2" speed="33.33" length="0.52" shape="3149.27,1250.88 3149.52,1250.79 3149.68,1250.72 3149.85,1250.65 3150.08,1250.54"/>
    </edge>
    <edge id=":25417957_0" function="internal">
        <lane id=":25417957_0_0" index="0" speed="33.33" length="3.43" shape="3083.52,1305.96 3082.49,1306.35 3081.79,1306.63 3081.08,1306.88 3080.02,1307.18"/>
        <lane id=":25417957_0_1" index="1" speed="33.33" length="3.43" shape="3082.44,1302.95 3081.49,1303.31 3080.84,1303.57 3080.19,1303.81 3079.21,1304.09"/>
        <lane id=":25417957_0_2" index="2" speed="33.33" length="3.43" shape="3081.36,1299.93 3080.48,1300.27 3079.89,1300.51 3079.29,1300.74 3078.40,1300.99"/>
    </edge>
    <edge id=":25417958_0" function="internal">
        <lane id=":25417958_0_0" index="0" speed="33.33" length="0.43" shape="3069.59,1272.77 3069.63,1272.76 3069.65,1272.75 3069.68,1272.74 3069.72,1272.73"/>
        <lane id=":25417958_0_1" index="1" speed="33.33" length="0.43" shape="3070.40,1275.86 3070.52,1275.83 3070.60,1275.81 3070.69,1275.78 3070.81,1275.74"/>
        <lane id=":25417958_0_2" index="2" speed="33.33" length="0.43" shape="3071.21,1278.96 3071.41,1278.91 3071.55,1278.87 3071.69,1278.82 3071.89,1278.75"/>
    </edge>
    <edge id=":25417959_0" function="internal">
        <lane id=":25417959_0_0" index="0" speed="33.33" length="0.39" shape="2989.08,1330.98 2988.46,1331.12"/>
        <lane id=":25417959_0_1" index="1" speed="33.33" length="0.39" shape="2988.27,1327.89 2987.90,1327.97"/>
        <lane id=":25417959_0_2" index="2" speed="33.33" length="0.39" shape="2987.46,1324.79 2987.34,1324.82"/>
    </edge>
    <edge id=":25417960_0" function="internal">
        <lane id=":25417960_0_0" index="0" speed="33.33" length="0.39" shape="2980.97,1295.96 2981.09,1295.93"/>
        <lane id=":25417960_0_1" index="1" speed="33.33" length="0.39" shape="2981.53,1299.11 2981.90,1299.03"/>
        <lane id=":25417960_0_2" index="2" speed="33.33" length="0.39" shape="2982.09,1302.26 2982.71,1302.12"/>
    </edge>
    <edge id=":25417961_0" function="internal">
        <lane id=":25417961_0_0" index="0" speed="33.33" length="3.78" shape="2877.08,1350.90 2875.82,1351.08 2874.95,1351.11 2874.08,1351.08 2872.80,1351.07"/>
        <lane id=":25417961_0_1" index="1" speed="33.33" length="3.78" shape="2876.52,1347.75 2875.41,1347.90 2874.65,1347.92 2873.88,1347.88 2872.75,1347.87"/>
        <lane id=":25417961_0_2" index="2" speed="33.33" length="3.78" shape="2875.96,1344.60 2875.00,1344.73 2874.34,1344.73 2873.67,1344.69 2872.70,1344.67"/>
    </edge>
    <edge id=":25417962_0" function="internal">
        <lane id=":25417962_0_0" index="0" speed="33.33" length="0.77" shape="2872.87,1315.13 2872.94,1315.12 2872.99,1315.12 2873.05,1315.12 2873.12,1315.10"/>
        <lane id=":25417962_0_1" index="1" speed="33.33" length="0.77" shape="2872.91,1318.33 2873.14,1318.32 2873.30,1318.31 2873.46,1318.29 2873.68,1318.25"/>
        <lane id=":25417962_0_2" index="2" speed="33.33" length="0.77" shape="2872.96,1321.53 2873.34,1321.52 2873.60,1321.50 2873.86,1321.47 2874.24,1321.40"/>
    </edge>
    <edge id=":25417964_0" function="internal">
        <lane id=":25417964_0_0" index="0" speed="33.33" length="3.65" shape="2767.11,1352.66 2765.90,1352.70 2765.07,1352.75 2764.24,1352.75 2763.03,1352.65"/>
        <lane id=":25417964_0_1" index="1" speed="33.33" length="3.65" shape="2767.06,1349.46 2765.98,1349.50 2765.23,1349.56 2764.49,1349.56 2763.42,1349.47"/>
        <lane id=":25417964_0_2" index="2" speed="33.33" length="3.65" shape="2767.01,1346.26 2766.06,1346.30 2765.40,1346.36 2764.75,1346.37 2763.80,1346.29"/>
    </edge>
    <edge id=":25417965_0" function="internal">
        <lane id=":25417965_0_0" index="0" speed="33.33" length="0.65" shape="2764.01,1316.74 2764.07,1316.75 2764.11,1316.75 2764.16,1316.75 2764.22,1316.75"/>
        <lane id=":25417965_0_1" index="1" speed="33.33" length="0.65" shape="2763.62,1319.92 2763.81,1319.94 2763.95,1319.95 2764.08,1319.96 2764.27,1319.95"/>
        <lane id=":25417965_0_2" index="2" speed="33.33" length="0.65" shape="2763.24,1323.10 2763.56,1323.13 2763.78,1323.15 2764.00,1323.16 2764.32,1323.15"/>
    </edge>
    <edge id=":25417966_0" function="internal">
        <lane id=":25417966_0_0" index="0" speed="33.33" length="3.52" shape="2658.01,1340.03 2656.87,1339.92 2656.09,1339.85 2655.31,1339.75 2654.19,1339.52"/>
        <lane id=":25417966_0_1" index="1" speed="33.33" length="3.52" shape="2658.39,1336.85 2657.35,1336.75 2656.64,1336.70 2655.93,1336.61 2654.91,1336.41"/>
        <lane id=":25417966_0_2" index="2" speed="33.33" length="3.52" shape="2658.77,1333.68 2657.84,1333.59 2657.19,1333.54 2656.55,1333.47 2655.63,1333.29"/>
    </edge>
    <edge id=":25417967_0" function="internal">
        <lane id=":25417967_0_0" index="0" speed="33.33" length="0.51" shape="2661.80,1304.39 2661.85,1304.40 2661.89,1304.41 2661.92,1304.42 2661.97,1304.42"/>
        <lane id=":25417967_0_1" index="1" speed="33.33" length="0.51" shape="2661.09,1307.51 2661.23,1307.54 2661.34,1307.57 2661.44,1307.58 2661.59,1307.60"/>
        <lane id=":25417967_0_2" index="2" speed="33.33" length="0.51" shape="2660.37,1310.63 2660.61,1310.69 2660.78,1310.72 2660.95,1310.74 2661.21,1310.78"/>
    </edge>
    <edge id=":25417968_0" function="internal">
        <lane id=":25417968_0_0" index="0" speed="33.33" length="3.58" shape="2530.80,1311.06 2529.67,1310.77 2528.91,1310.50 2528.16,1310.20 2527.07,1309.77"/>
        <lane id=":25417968_0_1" index="1" speed="33.33" length="3.58" shape="2531.52,1307.94 2530.50,1307.67 2529.81,1307.43 2529.14,1307.15 2528.15,1306.76"/>
        <lane id=":25417968_0_2" index="2" speed="33.33" length="3.58" shape="2532.24,1304.82 2531.33,1304.58 2530.72,1304.36 2530.12,1304.10 2529.24,1303.75"/>
    </edge>
    <edge id=":25417969_0" function="internal">
        <lane id=":25417969_0_0" index="0" speed="33.33" length="0.57" shape="2540.46,1276.40 2540.51,1276.42 2540.55,1276.43 2540.58,1276.44 2540.64,1276.45"/>
        <lane id=":25417969_0_1" index="1" speed="33.33" length="0.57" shape="2539.37,1279.41 2539.53,1279.46 2539.64,1279.50 2539.76,1279.53 2539.92,1279.57"/>
        <lane id=":25417969_0_2" index="2" speed="33.33" length="0.57" shape="2538.29,1282.42 2538.55,1282.51 2538.74,1282.57 2538.93,1282.62 2539.20,1282.69"/>
    </edge>
    <edge id=":25417970_0" function="internal">
        <lane id=":25417970_0_0" index="0" speed="33.33" length="3.56" shape="2403.15,1265.13 2402.07,1264.70 2401.35,1264.36 2400.65,1263.97 2399.62,1263.43"/>
        <lane id=":25417970_0_1" index="1" speed="33.33" length="3.56" shape="2404.24,1262.12 2403.26,1261.73 2402.61,1261.41 2401.98,1261.06 2401.04,1260.56"/>