<edges>
	<edge id="405348731_262246244_4075536140_262246244" from="262246244" to="4075536141" numLanes="3" speed="27.78" />
	<edge id="405348731_262246244_4075536140_4075536141" from="4075536141" to="4075536140" numLanes="3" speed="27.78" />
	<edge id="24220330_262247083_4075536121_262247083" from="262247083" to="4075536105" numLanes="3" speed="33.33" />
	<edge id="24220330_262247083_4075536121_4075536105" from="4075536105" to="25417995" numLanes="3" speed="33.33" />
	<edge id="24220330_262247083_4075536121_25417995" from="25417995" to="4075536107" numLanes="3" speed="33.33" />
	<edge id="24220330_262247083_4075536121_4075536107" from="4075536107" to="4075536113" numLanes="3" speed="33.33" />
	<edge id="24220330_262247083_4075536121_4075536113" from="4075536113" to="25423008" numLanes="3" speed="33.33" />
	<edge id="24220330_262247083_4075536121_25423008" from="25423008" to="4386387175" numLanes="3" speed="33.33" />
	<edge id="24220330_262247083_4075536121_4386387175" from="4386387175" to="4075536121" numLanes="3" speed="33.33" />
	<edge id="405348730_4075536140_4075536138_4075536140" from="4075536140" to="4075536138" numLanes="4" speed="27.78" />
	<edge id="8362826_262246956_4385535697_262246956" from="262246956" to="4385359942" numLanes="2" speed="19.44" />
	<edge id="8362826_262246956_4385535697_4385359942" from="4385359942" to="4385359941" numLanes="2" speed="19.44" />
	<edge id="8362826_262246956_4385535697_4385359941" from="4385359941" to="262246957" numLanes="2" speed="19.44" />
	<edge id="8362826_262246956_4385535697_262246957" from="262246957" to="4075536080" numLanes="2" speed="19.44" />
	<edge id="8362826_262246956_4385535697_4075536080" from="4075536080" to="25416623" numLanes="2" speed="19.44" />
	<edge id="8362826_262246956_4385535697_25416623" from="25416623" to="4075536085" numLanes="2" speed="19.44" />
	<edge id="8362826_262246956_4385535697_4075536085" from="4075536085" to="25416624" numLanes="2" speed="19.44" />
	<edge id="8362826_262246956_4385535697_25416624" from="25416624" to="4075536087" numLanes="2" speed="19.44" />
	<edge id="8362826_262246956_4385535697_4075536087" from="4075536087" to="25416625" numLanes="2" speed="19.44" />
	<edge id="8362826_262246956_4385535697_25416625" from="25416625" to="4075536090" numLanes="2" speed="19.44" />
	<edge id="8362826_262246956_4385535697_4075536090" from="4075536090" to="25416626" numLanes="2" speed="19.44" />
	<edge id="8362826_262246956_4385535697_25416626" from="25416626" to="4075536095" numLanes="2" speed="19.44" />
	<edge id="8362826_262246956_4385535697_4075536095" from="4075536095" to="25416627" numLanes="2" speed="19.44" />
	<edge id="8362826_262246956_4385535697_25416627" from="25416627" to="4075536097" numLanes="2" speed="19.44" />
	<edge id="8362826_262246956_4385535697_4075536097" from="4075536097" to="25416628" numLanes="2" speed="19.44" />
	<edge id="8362826_262246956_4385535697_25416628" from="25416628" to="262246958" numLanes="2" speed="19.44" />
	<edge id="8362826_262246956_4385535697_262246958" from="262246958" to="4385535692" numLanes="2" speed="19.44" />
	<edge id="8362826_262246956_4385535697_4385535692" from="4385535692" to="4385535693" numLanes="2" speed="19.44" />
	<edge id="8362826_262246956_4385535697_4385535693" from="4385535693" to="4385535694" numLanes="2" speed="19.44" />
	<edge id="8362826_262246956_4385535697_4385535694" from="4385535694" to="4385535695" numLanes="2" speed="19.44" />
	<edge id="8362826_262246956_4385535697_4385535695" from="4385535695" to="4385535696" numLanes="2" speed="19.44" />
	<edge id="8362826_262246956_4385535697_4385535696" from="4385535696" to="4385535697" numLanes="2" speed="19.44" />
	<edge id="24220285_262246901_4075536120_262246901" from="262246901" to="4075536077" numLanes="2" speed="19.44" />
	<edge id="24220285_262246901_4075536120_4075536077" from="4075536077" to="254812021" numLanes="2" speed="19.44" />
	<edge id="24220285_262246901_4075536120_254812021" from="254812021" to="254812022" numLanes="2" speed="19.44" />
	<edge id="24220285_262246901_4075536120_254812022" from="254812022" to="4075536079" numLanes="2" speed="19.44" />
	<edge id="24220285_262246901_4075536120_4075536079" from="4075536079" to="254812023" numLanes="2" speed="19.44" />
	<edge id="24220285_262246901_4075536120_254812023" from="254812023" to="254812024" numLanes="2" speed="19.44" />
	<edge id="24220285_262246901_4075536120_254812024" from="254812024" to="262247074" numLanes="2" speed="19.44" />
	<edge id="24220285_262246901_4075536120_262247074" from="262247074" to="254812025" numLanes="2" speed="19.44" />
	<edge id="24220285_262246901_4075536120_254812025" from="254812025" to="254812026" numLanes="2" speed="19.44" />
	<edge id="24220285_262246901_4075536120_254812026" from="254812026" to="4075536123" numLanes="2" speed="19.44" />
	<edge id="24220285_262246901_4075536120_4075536123" from="4075536123" to="254812028" numLanes="2" speed="19.44" />
	<edge id="24220285_262246901_4075536120_254812028" from="254812028" to="254812030" numLanes="2" speed="19.44" />
	<edge id="24220285_262246901_4075536120_254812030" from="254812030" to="262247075" numLanes="2" speed="19.44" />
	<edge id="24220285_262246901_4075536120_262247075" from="262247075" to="4386387179" numLanes="2" speed="19.44" />
	<edge id="24220285_262246901_4075536120_4386387179" from="4386387179" to="4386387178" numLanes="2" speed="19.44" />
	<edge id="24220285_262246901_4075536120_4386387178" from="4386387178" to="4075536120" numLanes="2" speed="19.44" />
	<edge id="282895059_4075536126_262247105_4075536126" from="4075536126" to="4386387170" numLanes="3" speed="33.33" />
	<edge id="282895059_4075536126_262247105_4386387170" from="4386387170" to="4386387173" numLanes="3" speed="33.33" />
	<edge id="282895059_4075536126_262247105_4386387173" from="4386387173" to="4386387172" numLanes="3" speed="33.33" />
	<edge id="282895059_4075536126_262247105_4386387172" from="4386387172" to="4386387174" numLanes="3" speed="33.33" />
	<edge id="282895059_4075536126_262247105_4386387174" from="4386387174" to="4075536100" numLanes="3" speed="33.33" />
	<edge id="282895059_4075536126_262247105_4075536100" from="4075536100" to="25417996" numLanes="3" speed="33.33" />
	<edge id="282895059_4075536126_262247105_25417996" from="25417996" to="4075536098" numLanes="3" speed="33.33" />
	<edge id="282895059_4075536126_262247105_4075536098" from="4075536098" to="262247105" numLanes="3" speed="33.33" />
	<edge id="405348706_25417989_262247155_25417989" from="25417989" to="4075536119" numLanes="4" speed="33.33" />
	<edge id="405348706_25417989_262247155_4075536119" from="4075536119" to="262247155" numLanes="4" speed="33.33" />
	<edge id="8362792_4386405024_4386405021_4386405024" from="4386405024" to="4386405023" numLanes="2" speed="19.44" />
	<edge id="8362792_4386405024_4386405021_4386405023" from="4386405023" to="4386405022" numLanes="2" speed="19.44" />
	<edge id="8362792_4386405024_4386405021_4386405022" from="4386405022" to="4386405021" numLanes="2" speed="19.44" />
	<edge id="147160368_262246252_254812753_262246252" from="262246252" to="262246253" numLanes="2" speed="36.11" />
	<edge id="147160368_262246252_254812753_262246253" from="262246253" to="262246254" numLanes="2" speed="36.11" />
	<edge id="147160368_262246252_254812753_262246254" from="262246254" to="262246255" numLanes="2" speed="36.11" />
	<edge id="147160368_262246252_254812753_262246255" from="262246255" to="4385359932" numLanes="2" speed="36.11" />
	<edge id="147160368_262246252_254812753_4385359932" from="4385359932" to="4385359933" numLanes="2" speed="36.11" />
	<edge id="147160368_262246252_254812753_4385359933" from="4385359933" to="254812753" numLanes="2" speed="36.11" />
	<edge id="440781475_4385535690_4386405031_4385535690" from="4385535690" to="4385535689" numLanes="1" speed="19.44" />
	<edge id="440781475_4385535690_4386405031_4385535689" from="4385535689" to="4385535588" numLanes="1" speed="19.44" />
	<edge id="440781475_4385535690_4386405031_4385535588" from="4385535588" to="4385535587" numLanes="1" speed="19.44" />
	<edge id="440781475_4385535690_4386405031_4385535587" from="4385535587" to="262246977" numLanes="1" speed="19.44" />
	<edge id="440781475_4385535690_4386405031_262246977" from="262246977" to="4385535586" numLanes="1" speed="19.44" />
	<edge id="440781475_4385535690_4386405031_4385535586" from="4385535586" to="4075536122" numLanes="1" speed="19.44" />
	<edge id="440781475_4385535690_4386405031_4075536122" from="4075536122" to="25416620" numLanes="1" speed="19.44" />
	<edge id="440781475_4385535690_4386405031_25416620" from="25416620" to="4075536125" numLanes="1" speed="19.44" />
	<edge id="440781475_4385535690_4386405031_4075536125" from="4075536125" to="25416619" numLanes="1" speed="19.44" />
	<edge id="440781475_4385535690_4386405031_25416619" from="25416619" to="4075536129" numLanes="1" speed="19.44" />
	<edge id="440781475_4385535690_4386405031_4075536129" from="4075536129" to="25416618" numLanes="1" speed="19.44" />
	<edge id="440781475_4385535690_4386405031_25416618" from="25416618" to="25416617" numLanes="1" speed="19.44" />
	<edge id="440781475_4385535690_4386405031_25416617" from="25416617" to="25416616" numLanes="1" speed="19.44" />
	<edge id="440781475_4385535690_4386405031_25416616" from="25416616" to="262246978" numLanes="1" speed="19.44" />
	<edge id="440781475_4385535690_4386405031_262246978" from="262246978" to="30043857" numLanes="1" speed="19.44" />
	<edge id="440781475_4385535690_4386405031_30043857" from="30043857" to="4386405029" numLanes="1" speed="19.44" />
	<edge id="440781475_4385535690_4386405031_4386405029" from="4386405029" to="4386405030" numLanes="1" speed="19.44" />
	<edge id="440781475_4385535690_4386405031_4386405030" from="4386405030" to="4386405031" numLanes="1" speed="19.44" />
	<edge id="405348728_262246956_244451562_262246956" from="262246956" to="262246960" numLanes="2" speed="36.11" />
	<edge id="405348728_262246956_244451562_262246960" from="262246960" to="244451560" numLanes="2" speed="36.11" />
	<edge id="405348728_262246956_244451562_244451560" from="244451560" to="244451561" numLanes="2" speed="36.11" />
	<edge id="405348728_262246956_244451562_244451561" from="244451561" to="4075536101" numLanes="2" speed="36.11" />
	<edge id="405348728_262246956_244451562_4075536101" from="4075536101" to="244451562" numLanes="2" speed="36.11" />
	<edge id="405348739_262246645_4075536078_262246645" from="262246645" to="254812748" numLanes="4" speed="19.44" />
	<edge id="405348739_262246645_4075536078_254812748" from="254812748" to="254812749" numLanes="4" speed="19.44" />
	<edge id="405348739_262246645_4075536078_254812749" from="254812749" to="4075536078" numLanes="4" speed="19.44" />
	<edge id="405348703_4075536109_25417992_4075536109" from="4075536109" to="25417992" numLanes="4" speed="33.33" />
	<edge id="24220334_262247105_25417994_262247105" from="262247105" to="25417994" numLanes="3" speed="33.33" />
	<edge id="405348699_4075536102_262246252_4075536102" from="4075536102" to="262246251" numLanes="3" speed="36.11" />
	<edge id="405348699_4075536102_262246252_262246251" from="262246251" to="262246252" numLanes="3" speed="36.11" />
	<edge id="405348714_4385535690_4075536104_4385535690" from="4385535690" to="4385535585" numLanes="4" speed="33.33" />
	<edge id="405348714_4385535690_4075536104_4385535585" from="4385535585" to="4075536104" numLanes="4" speed="33.33" />
	<edge id="440870864_4075536118_25417993_4075536118" from="4075536118" to="25417993" numLanes="4" speed="33.33" />
	<edge id="23543976_4075536126_262246645_4075536126" from="4075536126" to="4386387171" numLanes="2" speed="19.44" />
	<edge id="23543976_4075536126_262246645_4386387171" from="4386387171" to="4386387167" numLanes="2" speed="19.44" />
	<edge id="23543976_4075536126_262246645_4386387167" from="4386387167" to="4386387168" numLanes="2" speed="19.44" />
	<edge id="23543976_4075536126_262246645_4386387168" from="4386387168" to="4386387169" numLanes="2" speed="19.44" />
	<edge id="23543976_4075536126_262246645_4386387169" from="4386387169" to="4386387165" numLanes="2" speed="19.44" />
	<edge id="23543976_4075536126_262246645_4386387165" from="4386387165" to="4386387166" numLanes="2" speed="19.44" />
	<edge id="23543976_4075536126_262246645_4386387166" from="4386387166" to="4075536093" numLanes="2" speed="19.44" />
	<edge id="23543976_4075536126_262246645_4075536093" from="4075536093" to="254812746" numLanes="2" speed="19.44" />
	<edge id="23543976_4075536126_262246645_254812746" from="254812746" to="4075536088" numLanes="2" speed="19.44" />
	<edge id="23543976_4075536126_262246645_4075536088" from="4075536088" to="254812747" numLanes="2" speed="19.44" />
	<edge id="23543976_4075536126_262246645_254812747" from="254812747" to="262246645" numLanes="2" speed="19.44" />
	<edge id="405348729_4075536138_4386405025_4075536138" from="4075536138" to="4386405025" numLanes="4" speed="27.78" />
	<edge id="8362805_4075536102_4075536109_4075536102" from="4075536102" to="4385535700" numLanes="2" speed="19.44" />
	<edge id="8362805_4075536102_4075536109_4385535700" from="4385535700" to="4385535701" numLanes="2" speed="19.44" />
	<edge id="8362805_4075536102_4075536109_4385535701" from="4385535701" to="262247255" numLanes="2" speed="19.44" />
	<edge id="8362805_4075536102_4075536109_262247255" from="262247255" to="25416588" numLanes="2" speed="19.44" />
	<edge id="8362805_4075536102_4075536109_25416588" from="25416588" to="4075536084" numLanes="2" speed="19.44" />
	<edge id="8362805_4075536102_4075536109_4075536084" from="4075536084" to="25416589" numLanes="2" speed="19.44" />
	<edge id="8362805_4075536102_4075536109_25416589" from="25416589" to="4075536082" numLanes="2" speed="19.44" />
	<edge id="8362805_4075536102_4075536109_4075536082" from="4075536082" to="25416590" numLanes="2" speed="19.44" />
	<edge id="8362805_4075536102_4075536109_25416590" from="25416590" to="4075536081" numLanes="2" speed="19.44" />
	<edge id="8362805_4075536102_4075536109_4075536081" from="4075536081" to="25416591" numLanes="2" speed="19.44" />
	<edge id="8362805_4075536102_4075536109_25416591" from="25416591" to="4075536083" numLanes="2" speed="19.44" />
	<edge id="8362805_4075536102_4075536109_4075536083" from="4075536083" to="25416592" numLanes="2" speed="19.44" />
	<edge id="8362805_4075536102_4075536109_25416592" from="25416592" to="4075536086" numLanes="2" speed="19.44" />
	<edge id="8362805_4075536102_4075536109_4075536086" from="4075536086" to="25416593" numLanes="2" speed="19.44" />
	<edge id="8362805_4075536102_4075536109_25416593" from="25416593" to="4075536089" numLanes="2" speed="19.44" />
	<edge id="8362805_4075536102_4075536109_4075536089" from="4075536089" to="25416594" numLanes="2" speed="19.44" />
	<edge id="8362805_4075536102_4075536109_25416594" from="25416594" to="4075536096" numLanes="2" speed="19.44" />
	<edge id="8362805_4075536102_4075536109_4075536096" from="4075536096" to="25416595" numLanes="2" speed="19.44" />
	<edge id="8362805_4075536102_4075536109_25416595" from="25416595" to="4075536109" numLanes="2" speed="19.44" />
	<edge id="405348734_244451562_4386405028_244451562" from="244451562" to="244451758" numLanes="2" speed="27.78" />
	<edge id="405348734_244451562_4386405028_244451758" from="244451758" to="244451757" numLanes="2" speed="27.78" />
	<edge id="405348734_244451562_4386405028_244451757" from="244451757" to="4075536135" numLanes="2" speed="27.78" />
	<edge id="405348734_244451562_4386405028_4075536135" from="4075536135" to="262245483" numLanes="2" speed="27.78" />
	<edge id="405348734_244451562_4386405028_262245483" from="262245483" to="4386405028" numLanes="2" speed="27.78" />
	<edge id="405348719_244451559_262246956_244451559" from="244451559" to="262246956" numLanes="3" speed="36.11" />
	<edge id="24220329_25417993_262247083_25417993" from="25417993" to="262247083" numLanes="3" speed="33.33" />
	<edge id="24220348_25417992_262247160_25417992" from="25417992" to="262247160" numLanes="4" speed="33.33" />
	<edge id="405348705_4386405024_25417989_4386405024" from="4386405024" to="25417989" numLanes="5" speed="33.33" />
	<edge id="24220345_262247155_4075536118_262247155" from="262247155" to="4075536118" numLanes="4" speed="33.33" />
	<edge id="440870865_4386405021_4386405020_4386405021" from="4386405021" to="4386405020" numLanes="2" speed="19.44" />
	<edge id="24220349_25417982_4385535697_25417982" from="25417982" to="4385535697" numLanes="3" speed="33.33" />
	<edge id="24220279_262246804_244451558_262246804" from="262246804" to="262246805" numLanes="2" speed="19.44" />
	<edge id="24220279_262246804_244451558_262246805" from="262246805" to="262246806" numLanes="2" speed="19.44" />
	<edge id="24220279_262246804_244451558_262246806" from="262246806" to="4075536074" numLanes="2" speed="19.44" />
	<edge id="24220279_262246804_244451558_4075536074" from="4075536074" to="262246807" numLanes="2" speed="19.44" />
	<edge id="24220279_262246804_244451558_262246807" from="262246807" to="262246808" numLanes="2" speed="19.44" />
	<edge id="24220279_262246804_244451558_262246808" from="262246808" to="262246809" numLanes="2" speed="19.44" />
	<edge id="24220279_262246804_244451558_262246809" from="262246809" to="4385359940" numLanes="2" speed="19.44" />
	<edge id="24220279_262246804_244451558_4385359940" from="4385359940" to="262246810" numLanes="2" speed="19.44" />
	<edge id="24220279_262246804_244451558_262246810" from="262246810" to="4075536069" numLanes="2" speed="19.44" />
	<edge id="24220279_262246804_244451558_4075536069" from="4075536069" to="262246811" numLanes="2" speed="19.44" />
	<edge id="24220279_262246804_244451558_262246811" from="262246811" to="4385359939" numLanes="2" speed="19.44" />
	<edge id="24220279_262246804_244451558_4385359939" from="4385359939" to="262246812" numLanes="2" speed="19.44" />
	<edge id="24220279_262246804_244451558_262246812" from="262246812" to="4385359938" numLanes="2" speed="19.44" />
	<edge id="24220279_262246804_244451558_4385359938" from="4385359938" to="262246813" numLanes="2" speed="19.44" />
	<edge id="24220279_262246804_244451558_262246813" from="262246813" to="4385359937" numLanes="2" speed="19.44" />
	<edge id="24220279_262246804_244451558_4385359937" from="4385359937" to="4075536070" numLanes="2" speed="19.44" />
	<edge id="24220279_262246804_244451558_4075536070" from="4075536070" to="4385359936" numLanes="2" speed="19.44" />
	<edge id="24220279_262246804_244451558_4385359936" from="4385359936" to="244451558" numLanes="2" speed="19.44" />
	<edge id="405348733_4386405025_262246248_4386405025" from="4386405025" to="262246246" numLanes="2" speed="27.78" />
	<edge id="405348733_4386405025_262246248_262246246" from="262246246" to="4075536137" numLanes="2" speed="27.78" />
	<edge id="405348733_4386405025_262246248_4075536137" from="4075536137" to="262246247" numLanes="2" speed="27.78" />
	<edge id="405348733_4386405025_262246248_262246247" from="262246247" to="262246248" numLanes="2" speed="27.78" />
	<edge id="405348736_4075536110_4075536120_4075536110" from="4075536110" to="4075536112" numLanes="1" speed="19.44" />
	<edge id="405348736_4075536110_4075536120_4075536112" from="4075536112" to="4386387177" numLanes="1" speed="19.44" />
	<edge id="405348736_4075536110_4075536120_4386387177" from="4386387177" to="4386387176" numLanes="1" speed="19.44" />
	<edge id="405348736_4075536110_4075536120_4386387176" from="4386387176" to="4386387180" numLanes="1" speed="19.44" />
	<edge id="405348736_4075536110_4075536120_4386387180" from="4386387180" to="4075536120" numLanes="1" speed="19.44" />
	<edge id="405348732_4386405028_4386405031_4386405028" from="4386405028" to="4075536139" numLanes="3" speed="27.78" />
	<edge id="405348732_4386405028_4386405031_4075536139" from="4075536139" to="4386405031" numLanes="3" speed="27.78" />
	<edge id="405348710_4075536104_25417985_4075536104" from="4075536104" to="4075536108" numLanes="5" speed="33.33" />
	<edge id="405348710_4075536104_25417985_4075536108" from="4075536108" to="25417985" numLanes="5" speed="33.33" />
	<edge id="440870866_4386405020_262246249_4386405020" from="4386405020" to="262247261" numLanes="2" speed="19.44" />
	<edge id="440870866_4386405020_262246249_262247261" from="262247261" to="25416570" numLanes="2" speed="19.44" />
	<edge id="440870866_4386405020_262246249_25416570" from="25416570" to="4075536124" numLanes="2" speed="19.44" />
	<edge id="440870866_4386405020_262246249_4075536124" from="4075536124" to="25416571" numLanes="2" speed="19.44" />
	<edge id="440870866_4386405020_262246249_25416571" from="25416571" to="4075536128" numLanes="2" speed="19.44" />
	<edge id="440870866_4386405020_262246249_4075536128" from="4075536128" to="25416572" numLanes="2" speed="19.44" />
	<edge id="440870866_4386405020_262246249_25416572" from="25416572" to="4075536132" numLanes="2" speed="19.44" />
	<edge id="440870866_4386405020_262246249_4075536132" from="4075536132" to="25416573" numLanes="2" speed="19.44" />
	<edge id="440870866_4386405020_262246249_25416573" from="25416573" to="4075536134" numLanes="2" speed="19.44" />
	<edge id="440870866_4386405020_262246249_4075536134" from="4075536134" to="25416574" numLanes="2" speed="19.44" />
	<edge id="440870866_4386405020_262246249_25416574" from="25416574" to="4075536133" numLanes="2" speed="19.44" />
	<edge id="440870866_4386405020_262246249_4075536133" from="4075536133" to="25416575" numLanes="2" speed="19.44" />
	<edge id="440870866_4386405020_262246249_25416575" from="25416575" to="4075536130" numLanes="2" speed="19.44" />
	<edge id="440870866_4386405020_262246249_4075536130" from="4075536130" to="262247262" numLanes="2" speed="19.44" />
	<edge id="440870866_4386405020_262246249_262247262" from="262247262" to="4385535699" numLanes="2" speed="19.44" />
	<edge id="440870866_4386405020_262246249_4385535699" from="4385535699" to="262247263" numLanes="2" speed="19.44" />
	<edge id="440870866_4386405020_262246249_262247263" from="262247263" to="4385535698" numLanes="2" speed="19.44" />
	<edge id="440870866_4386405020_262246249_4385535698" from="4385535698" to="262246249" numLanes="2" speed="19.44" />
	<edge id="405348725_244451558_244451559_244451558" from="244451558" to="244451559" numLanes="3" speed="36.11" />
	<edge id="23543928_4075536065_254812020_4075536065" from="4075536065" to="4385359929" numLanes="2" speed="19.44" />
	<edge id="23543928_4075536065_254812020_4385359929" from="4385359929" to="4385359928" numLanes="2" speed="19.44" />
	<edge id="23543928_4075536065_254812020_4385359928" from="4385359928" to="262246580" numLanes="2" speed="19.44" />
	<edge id="23543928_4075536065_254812020_262246580" from="262246580" to="254812013" numLanes="2" speed="19.44" />
	<edge id="23543928_4075536065_254812020_254812013" from="254812013" to="4075536067" numLanes="2" speed="19.44" />
	<edge id="23543928_4075536065_254812020_4075536067" from="4075536067" to="254812014" numLanes="2" speed="19.44" />
	<edge id="23543928_4075536065_254812020_254812014" from="254812014" to="4075536068" numLanes="2" speed="19.44" />
	<edge id="23543928_4075536065_254812020_4075536068" from="4075536068" to="262246582" numLanes="2" speed="19.44" />
	<edge id="23543928_4075536065_254812020_262246582" from="262246582" to="254812015" numLanes="2" speed="19.44" />
	<edge id="23543928_4075536065_254812020_254812015" from="254812015" to="4075536072" numLanes="2" speed="19.44" />
	<edge id="23543928_4075536065_254812020_4075536072" from="4075536072" to="254812016" numLanes="2" speed="19.44" />
	<edge id="23543928_4075536065_254812020_254812016" from="254812016" to="4075536073" numLanes="2" speed="19.44" />
	<edge id="23543928_4075536065_254812020_4075536073" from="4075536073" to="254812017" numLanes="2" speed="19.44" />
	<edge id="23543928_4075536065_254812020_254812017" from="254812017" to="4075536075" numLanes="2" speed="19.44" />
	<edge id="23543928_4075536065_254812020_4075536075" from="4075536075" to="254812018" numLanes="2" speed="19.44" />
	<edge id="23543928_4075536065_254812020_254812018" from="254812018" to="254812020" numLanes="2" speed="19.44" />
	<edge id="24220333_25417994_4075536109_25417994" from="25417994" to="4075536109" numLanes="3" speed="33.33" />
	<edge id="4717996_262246244_262247057_262246244" from="262246244" to="4386405027" numLanes="2" speed="19.44" />
	<edge id="4717996_262246244_262247057_4386405027" from="4386405027" to="4386405026" numLanes="2" speed="19.44" />
	<edge id="4717996_262246244_262247057_4386405026" from="4386405026" to="262246245" numLanes="2" speed="19.44" />
	<edge id="4717996_262246244_262247057_262246245" from="262246245" to="262247055" numLanes="2" speed="19.44" />
	<edge id="4717996_262246244_262247057_262247055" from="262247055" to="262247056" numLanes="2" speed="19.44" />
	<edge id="4717996_262246244_262247057_262247056" from="262247056" to="25416560" numLanes="2" speed="19.44" />
	<edge id="4717996_262246244_262247057_25416560" from="25416560" to="25416561" numLanes="2" speed="19.44" />
	<edge id="4717996_262246244_262247057_25416561" from="25416561" to="25416562" numLanes="2" speed="19.44" />
	<edge id="4717996_262246244_262247057_25416562" from="25416562" to="4075536131" numLanes="2" speed="19.44" />
	<edge id="4717996_262246244_262247057_4075536131" from="4075536131" to="25416563" numLanes="2" speed="19.44" />
	<edge id="4717996_262246244_262247057_25416563" from="25416563" to="4075536127" numLanes="2" speed="19.44" />
	<edge id="4717996_262246244_262247057_4075536127" from="4075536127" to="25416564" numLanes="2" speed="19.44" />
	<edge id="4717996_262246244_262247057_25416564" from="25416564" to="262247080" numLanes="2" speed="19.44" />
	<edge id="4717996_262246244_262247057_262247080" from="262247080" to="262247057" numLanes="2" speed="19.44" />
	<edge id="24220349_4385535697_25417938_4385535697" from="4385535697" to="4075536094" numLanes="3" speed="33.33" />
	<edge id="24220349_4385535697_25417938_4075536094" from="4075536094" to="25417980" numLanes="3" speed="33.33" />
	<edge id="24220349_4385535697_25417938_25417980" from="25417980" to="25417977" numLanes="3" speed="33.33" />
	<edge id="24220349_4385535697_25417938_25417977" from="25417977" to="25417975" numLanes="3" speed="33.33" />
	<edge id="24220349_4385535697_25417938_25417975" from="25417975" to="25417973" numLanes="3" speed="33.33" />
	<edge id="24220349_4385535697_25417938_25417973" from="25417973" to="25417971" numLanes="3" speed="33.33" />
	<edge id="24220349_4385535697_25417938_25417971" from="25417971" to="25417969" numLanes="3" speed="33.33" />
	<edge id="24220349_4385535697_25417938_25417969" from="25417969" to="25417967" numLanes="3" speed="33.33" />
	<edge id="24220349_4385535697_25417938_25417967" from="25417967" to="25417965" numLanes="3" speed="33.33" />
	<edge id="24220349_4385535697_25417938_25417965" from="25417965" to="25417962" numLanes="3" speed="33.33" />
	<edge id="24220349_4385535697_25417938_25417962" from="25417962" to="25417960" numLanes="3" speed="33.33" />
	<edge id="24220349_4385535697_25417938_25417960" from="25417960" to="25417958" numLanes="3" speed="33.33" />
	<edge id="24220349_4385535697_25417938_25417958" from="25417958" to="25417956" numLanes="3" speed="33.33" />
	<edge id="24220349_4385535697_25417938_25417956" from="25417956" to="25417954" numLanes="3" speed="33.33" />
	<edge id="24220349_4385535697_25417938_25417954" from="25417954" to="25417952" numLanes="3" speed="33.33" />
	<edge id="24220349_4385535697_25417938_25417952" from="25417952" to="25417950" numLanes="3" speed="33.33" />
	<edge id="24220349_4385535697_25417938_25417950" from="25417950" to="25417948" numLanes="3" speed="33.33" />
	<edge id="24220349_4385535697_25417938_25417948" from="25417948" to="25417946" numLanes="3" speed="33.33" />
	<edge id="24220349_4385535697_25417938_25417946" from="25417946" to="25417944" numLanes="3" speed="33.33" />
	<edge id="24220349_4385535697_25417938_25417944" from="25417944" to="25417942" numLanes="3" speed="33.33" />
	<edge id="24220349_4385535697_25417938_25417942" from="25417942" to="25417940" numLanes="3" speed="33.33" />
	<edge id="24220349_4385535697_25417938_25417940" from="25417940" to="25417938" numLanes="3" speed="33.33" />
	<edge id="24220327_4075536115_4075536110_4075536115" from="4075536115" to="4075536114" numLanes="2" speed="19.44" />
	<edge id="24220327_4075536115_4075536110_4075536114" from="4075536114" to="4075536110" numLanes="2" speed="19.44" />
	<edge id="24220276_4075536078_262246803_4075536078" from="4075536078" to="4385535703" numLanes="2" speed="19.44" />
	<edge id="24220276_4075536078_262246803_4385535703" from="4385535703" to="262246802" numLanes="2" speed="19.44" />
	<edge id="24220276_4075536078_262246803_262246802" from="262246802" to="4075536076" numLanes="2" speed="19.44" />
	<edge id="24220276_4075536078_262246803_4075536076" from="4075536076" to="262246803" numLanes="2" speed="19.44" />
	<edge id="24220281_262246803_262246804_262246803" from="262246803" to="262246804" numLanes="2" speed="19.44" />
	<edge id="23906117_30043855_4386405061_30043855" from="30043855" to="4075536142" numLanes="2" speed="27.78" />
	<edge id="23906117_30043855_4386405061_4075536142" from="4075536142" to="244451644" numLanes="2" speed="27.78" />
	<edge id="23906117_30043855_4386405061_244451644" from="244451644" to="30043853" numLanes="2" speed="27.78" />
	<edge id="23906117_30043855_4386405061_30043853" from="30043853" to="30043851" numLanes="2" speed="27.78" />
	<edge id="23906117_30043855_4386405061_30043851" from="30043851" to="30043849" numLanes="2" speed="27.78" />
	<edge id="23906117_30043855_4386405061_30043849" from="30043849" to="30043847" numLanes="2" speed="27.78" />
	<edge id="23906117_30043855_4386405061_30043847" from="30043847" to="30043846" numLanes="2" speed="27.78" />
	<edge id="23906117_30043855_4386405061_30043846" from="30043846" to="30043844" numLanes="2" speed="27.78" />