<?xml version="1.0" encoding="UTF-8"?>

<!-- generated on 04/15/14 14:26:30 by SUMO duarouter Version 0.19.0
<?xml version="1.0" encoding="UTF-8"?>

<configuration xmlns:xsi="http://www.w3.org/2001/XMLSchema-instance" xsi:noNamespaceSchemaLocation="http://sumo-sim.org/xsd/duarouterConfiguration.xsd">

    <input>
        <net-file value=".\Barnim.net.xml"/>
        <trip-files value=".\trips.xml"/>
    </input>

    <output>
        <output-file value="Barnim.rou.xml"/>
    </output>

</configuration>
-->

<routes xmlns:xsi="http://www.w3.org/2001/XMLSchema-instance" xsi:noNamespaceSchemaLocation="http://sumo-sim.org/xsd/routes_file.xsd">
    <vehicle id="0" depart="5.00">
        <route edges="4067968_28830219_39933927_2450938914 4067968_28830219_39933927_60635629 4067968_28830219_39933927_267925251 4067968_28830219_39933927_599826230 5477467_39933927_335376891_39933927 5477467_39933927_335376891_39934065 5477467_39933927_335376891_267923737 5477467_39933927_335376891_267923739"/>
    </vehicle>
    <vehicle id="1" depart="5.00">
        <route edges="5477467_39933927_335376891_267923739 5477467_39933927_335376891_267923741 166752304_335376891_39933917_335376891 166752304_39933917_75666594_39933917 166752304_39933917_75666594_564006580 166752304_75666594_75673057_75666594 166752304_75666594_75673057_76565701 166752304_75666594_75673057_739356847 166752304_75666594_75673057_21508748 166752304_75666594_75673057_739356839 166752304_75673057_303184519_75673057 166752304_75673057_303184519_739356830 166752304_303184519_1781963887_303184519 166752301_1781963887_73586268_1781963887 166752301_1781963887_73586268_2250683387 30602177_73586268_75679644_73586268 30602177_73586268_75679644_765965511 229068361_75679644_21508747_75679644 229068361_21508747_2621152986_21508747 229068361_21508747_2621152986_765965509 229068361_21508747_2621152986_2625982333 229068361_21508747_2621152986_2621153010 229068361_21508747_2621152986_2621153009 229068361_21508747_2621152986_2621153003 229068361_21508747_2621152986_2621152999 229068361_21508747_2621152986_73586264 229068361_21508747_2621152986_21508756 229068361_2621152986_2621152983_2621152986 111283478_2621152983_2621152974_2621152983 111283478_2621152983_2621152974_2621152977"/>
    </vehicle>
    <vehicle id="2" depart="5.00">
        <route edges="111283478_2621152983_2621152974_2621152977 111283478_2621152983_2621152974_2621152975 229068360_2621152974_2621152972_2621152974 229068360_2621152972_21508746_2621152972 229068360_2621152972_21508746_601059352 229068360_2621152972_21508746_1600991158 229068360_2621152972_21508746_1600991160 229068357_21508746_2510564806_21508746 229068357_21508746_2510564806_1600991159 229068357_21508746_2510564806_1600991155 229068357_21508746_2510564806_2377050402 229068357_21508746_2510564806_1600991157 229068357_21508746_2510564806_661749240 229068357_21508746_2510564806_416065959 229068357_21508746_2510564806_1600991154 229068357_21508746_2510564806_661749237 146875503_2510564806_27031232_2510564806 146875503_2510564806_27031232_1600991153 146875503_2510564806_27031232_1600991156 146875503_2510564806_27031232_1587700342 146875503_2510564806_27031232_2510564804 146871033_27031232_27031229_27031232 227901601_27031229_866613841_27031229 227901601_27031229_866613841_2526390859 227901601_27031229_866613841_866613799 227901601_27031229_866613841_866614008 227901601_27031229_866613841_1313885439 227901601_27031229_866613841_1313885527 227901601_27031229_866613841_1313885436 227901601_27031229_866613841_866613786 245432872_866613841_866614578_866613841 116570239_866614578_866613555_866614578 116570239_866614578_866613555_1313885456 245434998_866613555_1313885532_866613555 245434998_866613555_1313885532_2389986818 245434998_866613555_1313885532_866613905 116570222_1313885532_2026362814_1313885532 116570222_1313885532_2026362814_1313885431 116570222_1313885532_2026362814_2026362827 116570222_1313885532_2026362814_2026362821 192079314_2026362814_692755381_2026362814 192079314_2026362814_692755381_2510575567 182262835_692755381_49832298_692755381"/>
    </vehicle>
    <vehicle id="3" depart="5.00">
        <route edges="4067968_28830219_39933927_2450938914 4067968_28830219_39933927_60635629 4067968_28830219_39933927_267925251 4067968_28830219_39933927_599826230 62710154_39933927_39933921_39933927 73017982_39933921_2026362940_39933921"/>
    </vehicle>
    <vehicle id="4" depart="5.00">
        <route edges="73017982_39933921_2026362940_39933921 73017982_39933921_2026362940_2026362943 -3366_2026362940_1313885502_2026362940 -3366_2026362940_1313885502_2026362938 -3366_2026362940_1313885502_2364474851 -3366_2026362940_1313885502_1313885442 -3366_2026362940_1313885502_2026362934 -3366_2026362940_1313885502_2364474850 -3366_2026362940_1313885502_2026362930 -3366_2026362940_1313885502_2026362929 73017981_1313885502_866614526_1313885502 73017981_1313885502_866614526_2364474849 73017981_1313885502_866614526_1313885493 73017981_1313885502_866614526_2364474847 73017981_1313885502_866614526_1313885455 73017981_1313885502_866614526_1313885452 73017981_1313885502_866614526_866614218 73017981_1313885502_866614526_1313885474 73017981_1313885502_866614526_866614127 73017981_1313885502_866614526_866614379 73017981_1313885502_866614526_866614760 73017981_1313885502_866614526_866613761 73017981_1313885502_866614526_866614254 116570220_866614526_866613611_866614526 116570220_866614526_866613611_1313885383 116570220_866614526_866613611_2314374830 116570220_866614526_866613611_2026362918"/>
    </vehicle>
    <vehicle id="5" depart="5.00">
        <route edges="116570220_866614526_866613611_2026362918 73017984_866613611_866613693_866613611 73017984_866613611_866613693_2538574191 73017984_866613611_866613693_1313885521 73017984_866613611_866613693_1313885489 73017984_866613611_866613693_866614362 73017984_866613611_866613693_866614700 106057563_866613693_866614474_866613693 106057563_866613693_866614474_866614207 106057563_866613693_866614474_1313885413 106057563_866613693_866614474_1313885451 116570250_866614474_866613833_866614474 116570250_866614474_866613833_2026362855 116570250_866614474_866613833_1313885473 116570237_866613833_866613992_866613833 116570237_866613833_866613992_1313885484 116570237_866613833_866613992_2026362842 116570237_866613833_866613992_1313885386 116570237_866613833_866613992_1313885524 116570237_866613833_866613992_866614195 116570237_866613833_866613992_866614570 116570237_866613833_866613992_1313885441 116570237_866613833_866613992_866613497 165881196_866613992_866614320_866613992 165881196_866613992_866614320_866614684 165881196_866613992_866614320_1313885548 165881196_866613992_866614320_1313885531 165881196_866613992_866614320_2026362847 165881196_866613992_866614320_1313885511 165881196_866613992_866614320_2026362848 165881196_866613992_866614320_1313885515 165881196_866613992_866614320_1313885471 165881196_866613992_866614320_1313885435 165881196_866613992_866614320_1313885393 165881196_866613992_866614320_1313885492 165881196_866613992_866614320_1313885454 165881196_866613992_866614320_1313885415 232375390_866614320_866614323_866614320 232375390_866614323_866614062_866614323 248048346_866614062_866613506_866614062 248048344_866613506_866613555_866613506 245434998_866613555_1313885532_866613555 245434998_866613555_1313885532_2389986818 245434998_866613555_1313885532_866613905 116570222_1313885532_2026362814_1313885532 116570222_1313885532_2026362814_1313885431 116570222_1313885532_2026362814_2026362827 116570222_1313885532_2026362814_2026362821 192079314_2026362814_692755381_2026362814 192079314_2026362814_692755381_2510575567 182262835_692755381_49832298_692755381"/>
    </vehicle>
</routes>
