<edges>
	<edge id="74692396_1742074555_882342120_1742074555" from="1742074555" to="4386289216" numLanes="2" speed="11.11" />
	<edge id="74692396_1742074555_882342120_4386289216" from="4386289216" to="882342120" numLanes="2" speed="11.11" />
	<edge id="152827372_1748746673_1748746631_1748746673" from="1748746673" to="1656047825" numLanes="2" speed="18.06" />
	<edge id="152827372_1748746673_1748746631_1656047825" from="1656047825" to="1656048150" numLanes="2" speed="18.06" />
	<edge id="152827372_1748746673_1748746631_1656048150" from="1656048150" to="1656048215" numLanes="2" speed="18.06" />
	<edge id="152827372_1748746673_1748746631_1656048215" from="1656048215" to="1748746631" numLanes="2" speed="18.06" />
	<edge id="179642284_1900591766_1900591689_1900591766" from="1900591766" to="1900591689" numLanes="2" speed="18.06" />
	<edge id="495719020_882342120_882341892_882342120" from="882342120" to="1742074570" numLanes="2" speed="11.11" />
	<edge id="495719020_882342120_882341892_1742074570" from="1742074570" to="882342086" numLanes="2" speed="11.11" />
	<edge id="495719020_882342120_882341892_882342086" from="882342086" to="4386289217" numLanes="2" speed="11.11" />
	<edge id="495719020_882342120_882341892_4386289217" from="4386289217" to="882341892" numLanes="2" speed="11.11" />
	<edge id="109923217_1183506468_1748746631_1183506468" from="1183506468" to="1257142127" numLanes="2" speed="18.06" />
	<edge id="109923217_1183506468_1748746631_1257142127" from="1257142127" to="1748746564" numLanes="2" speed="18.06" />
	<edge id="109923217_1183506468_1748746631_1748746564" from="1748746564" to="1748746637" numLanes="2" speed="18.06" />
	<edge id="109923217_1183506468_1748746631_1748746637" from="1748746637" to="1748746698" numLanes="2" speed="18.06" />
	<edge id="109923217_1183506468_1748746631_1748746698" from="1748746698" to="1748746675" numLanes="2" speed="18.06" />
	<edge id="109923217_1183506468_1748746631_1748746675" from="1748746675" to="1748746746" numLanes="2" speed="18.06" />
	<edge id="109923217_1183506468_1748746631_1748746746" from="1748746746" to="1748746565" numLanes="2" speed="18.06" />
	<edge id="109923217_1183506468_1748746631_1748746565" from="1748746565" to="1748746636" numLanes="2" speed="18.06" />
	<edge id="109923217_1183506468_1748746631_1748746636" from="1748746636" to="1748746860" numLanes="2" speed="18.06" />
	<edge id="109923217_1183506468_1748746631_1748746860" from="1748746860" to="1748746604" numLanes="2" speed="18.06" />
	<edge id="109923217_1183506468_1748746631_1748746604" from="1748746604" to="1748746616" numLanes="2" speed="18.06" />
	<edge id="109923217_1183506468_1748746631_1748746616" from="1748746616" to="1748746674" numLanes="2" speed="18.06" />
	<edge id="109923217_1183506468_1748746631_1748746674" from="1748746674" to="1748746699" numLanes="2" speed="18.06" />
	<edge id="109923217_1183506468_1748746631_1748746699" from="1748746699" to="1748746635" numLanes="2" speed="18.06" />
	<edge id="109923217_1183506468_1748746631_1748746635" from="1748746635" to="1748746622" numLanes="2" speed="18.06" />
	<edge id="109923217_1183506468_1748746631_1748746622" from="1748746622" to="1748746623" numLanes="2" speed="18.06" />
	<edge id="109923217_1183506468_1748746631_1748746623" from="1748746623" to="1748746631" numLanes="2" speed="18.06" />
	<edge id="162275333_1741873986_1741874003_1741873986" from="1741873986" to="1741874003" numLanes="2" speed="36.11" />
	<edge id="110604216_29935396_1262646507_29935396" from="29935396" to="1762401047" numLanes="2" speed="18.06" />
	<edge id="110604216_29935396_1262646507_1762401047" from="1762401047" to="1762401212" numLanes="2" speed="18.06" />
	<edge id="110604216_29935396_1262646507_1762401212" from="1762401212" to="1762400954" numLanes="2" speed="18.06" />
	<edge id="110604216_29935396_1262646507_1762400954" from="1762400954" to="882342446" numLanes="2" speed="18.06" />
	<edge id="110604216_29935396_1262646507_882342446" from="882342446" to="1262646507" numLanes="2" speed="18.06" />
	<edge id="110604217_1262646517_1262646523_1262646517" from="1262646517" to="1980820507" numLanes="2" speed="18.06" />
	<edge id="110604217_1262646517_1262646523_1980820507" from="1980820507" to="1262646524" numLanes="2" speed="18.06" />
	<edge id="110604217_1262646517_1262646523_1262646524" from="1262646524" to="5996308582" numLanes="2" speed="18.06" />
	<edge id="110604217_1262646517_1262646523_5996308582" from="5996308582" to="1262646525" numLanes="2" speed="18.06" />
	<edge id="110604217_1262646517_1262646523_1262646525" from="1262646525" to="1262646518" numLanes="2" speed="18.06" />
	<edge id="110604217_1262646517_1262646523_1262646518" from="1262646518" to="1262646515" numLanes="2" speed="18.06" />
	<edge id="110604217_1262646517_1262646523_1262646515" from="1262646515" to="5996312087" numLanes="2" speed="18.06" />
	<edge id="110604217_1262646517_1262646523_5996312087" from="5996312087" to="1262646523" numLanes="2" speed="18.06" />
	<edge id="179642292_1900591760_1900591706_1900591760" from="1900591760" to="1900591706" numLanes="1" speed="16.67" />
	<edge id="162294683_29935377_882341892_29935377" from="29935377" to="3290260197" numLanes="2" speed="18.06" />
	<edge id="162294683_29935377_882341892_3290260197" from="3290260197" to="3290260192" numLanes="2" speed="18.06" />
	<edge id="162294683_29935377_882341892_3290260192" from="3290260192" to="3290260183" numLanes="2" speed="18.06" />
	<edge id="162294683_29935377_882341892_3290260183" from="3290260183" to="3290260187" numLanes="2" speed="18.06" />
	<edge id="162294683_29935377_882341892_3290260187" from="3290260187" to="1742074543" numLanes="2" speed="18.06" />
	<edge id="162294683_29935377_882341892_1742074543" from="1742074543" to="1742074571" numLanes="2" speed="18.06" />
	<edge id="162294683_29935377_882341892_1742074571" from="1742074571" to="882341892" numLanes="2" speed="18.06" />
	<edge id="179642288_1900591727_1900591683_1900591727" from="1900591727" to="1900591699" numLanes="2" speed="18.06" />
	<edge id="179642288_1900591727_1900591683_1900591699" from="1900591699" to="1900591653" numLanes="2" speed="18.06" />
	<edge id="179642288_1900591727_1900591683_1900591653" from="1900591653" to="1900591683" numLanes="2" speed="18.06" />
	<edge id="110604217_1262646510_1262646507_1262646510" from="1262646510" to="1262646513" numLanes="2" speed="18.06" />
	<edge id="110604217_1262646510_1262646507_1262646513" from="1262646513" to="1262646516" numLanes="2" speed="18.06" />
	<edge id="110604217_1262646510_1262646507_1262646516" from="1262646516" to="1262646507" numLanes="2" speed="18.06" />
	<edge id="179642284_1900591737_3290256241_1900591737" from="1900591737" to="1900591636" numLanes="2" speed="18.06" />
	<edge id="179642284_1900591737_3290256241_1900591636" from="1900591636" to="3290256241" numLanes="2" speed="18.06" />
	<edge id="322253937_3290256317_3290256222_3290256317" from="3290256317" to="3290256107" numLanes="1" speed="8.33" />
	<edge id="322253937_3290256317_3290256222_3290256107" from="3290256107" to="3290256249" numLanes="1" speed="8.33" />
	<edge id="322253937_3290256317_3290256222_3290256249" from="3290256249" to="3290256222" numLanes="1" speed="8.33" />
	<edge id="179642289_29935414_29935483_29935414" from="29935414" to="29935431" numLanes="1" speed="18.06" />
	<edge id="179642289_29935414_29935483_29935431" from="29935431" to="29935447" numLanes="1" speed="18.06" />
	<edge id="179642289_29935414_29935483_29935447" from="29935447" to="29935448" numLanes="1" speed="18.06" />
	<edge id="179642289_29935414_29935483_29935448" from="29935448" to="29935449" numLanes="1" speed="18.06" />
	<edge id="179642289_29935414_29935483_29935449" from="29935449" to="29935450" numLanes="1" speed="18.06" />
	<edge id="179642289_29935414_29935483_29935450" from="29935450" to="29935452" numLanes="1" speed="18.06" />
	<edge id="179642289_29935414_29935483_29935452" from="29935452" to="29935453" numLanes="1" speed="18.06" />
	<edge id="179642289_29935414_29935483_29935453" from="29935453" to="29935454" numLanes="1" speed="18.06" />
	<edge id="179642289_29935414_29935483_29935454" from="29935454" to="29935455" numLanes="1" speed="18.06" />
	<edge id="179642289_29935414_29935483_29935455" from="29935455" to="1747681224" numLanes="1" speed="18.06" />
	<edge id="179642289_29935414_29935483_1747681224" from="1747681224" to="29935456" numLanes="1" speed="18.06" />
	<edge id="179642289_29935414_29935483_29935456" from="29935456" to="29935457" numLanes="1" speed="18.06" />
	<edge id="179642289_29935414_29935483_29935457" from="29935457" to="29935458" numLanes="1" speed="18.06" />
	<edge id="179642289_29935414_29935483_29935458" from="29935458" to="29935459" numLanes="1" speed="18.06" />
	<edge id="179642289_29935414_29935483_29935459" from="29935459" to="29935461" numLanes="1" speed="18.06" />
	<edge id="179642289_29935414_29935483_29935461" from="29935461" to="29935462" numLanes="1" speed="18.06" />
	<edge id="179642289_29935414_29935483_29935462" from="29935462" to="2289519826" numLanes="1" speed="18.06" />
	<edge id="179642289_29935414_29935483_2289519826" from="2289519826" to="29935463" numLanes="1" speed="18.06" />
	<edge id="179642289_29935414_29935483_29935463" from="29935463" to="29935464" numLanes="1" speed="18.06" />
	<edge id="179642289_29935414_29935483_29935464" from="29935464" to="29935466" numLanes="1" speed="18.06" />
	<edge id="179642289_29935414_29935483_29935466" from="29935466" to="29935468" numLanes="1" speed="18.06" />
	<edge id="179642289_29935414_29935483_29935468" from="29935468" to="29935470" numLanes="1" speed="18.06" />
	<edge id="179642289_29935414_29935483_29935470" from="29935470" to="29935472" numLanes="1" speed="18.06" />
	<edge id="179642289_29935414_29935483_29935472" from="29935472" to="1747681121" numLanes="1" speed="18.06" />
	<edge id="179642289_29935414_29935483_1747681121" from="1747681121" to="29935474" numLanes="1" speed="18.06" />
	<edge id="179642289_29935414_29935483_29935474" from="29935474" to="1747668635" numLanes="1" speed="18.06" />
	<edge id="179642289_29935414_29935483_1747668635" from="1747668635" to="4018085152" numLanes="1" speed="18.06" />
	<edge id="179642289_29935414_29935483_4018085152" from="4018085152" to="4018085154" numLanes="1" speed="18.06" />
	<edge id="179642289_29935414_29935483_4018085154" from="4018085154" to="29935475" numLanes="1" speed="18.06" />
	<edge id="179642289_29935414_29935483_29935475" from="29935475" to="4861644638" numLanes="1" speed="18.06" />
	<edge id="179642289_29935414_29935483_4861644638" from="4861644638" to="29935476" numLanes="1" speed="18.06" />
	<edge id="179642289_29935414_29935483_29935476" from="29935476" to="2289668395" numLanes="1" speed="18.06" />
	<edge id="179642289_29935414_29935483_2289668395" from="2289668395" to="29935479" numLanes="1" speed="18.06" />
	<edge id="179642289_29935414_29935483_29935479" from="29935479" to="29935480" numLanes="1" speed="18.06" />
	<edge id="179642289_29935414_29935483_29935480" from="29935480" to="29935481" numLanes="1" speed="18.06" />
	<edge id="179642289_29935414_29935483_29935481" from="29935481" to="29935482" numLanes="1" speed="18.06" />
	<edge id="179642289_29935414_29935483_29935482" from="29935482" to="2895469990" numLanes="1" speed="18.06" />
	<edge id="179642289_29935414_29935483_2895469990" from="2895469990" to="29935483" numLanes="1" speed="18.06" />
	<edge id="162275898_1741892109_1741874017_1741892109" from="1741892109" to="1741874017" numLanes="2" speed="36.11" />
	<edge id="179642291_1900591683_1900591737_1900591683" from="1900591683" to="1900591669" numLanes="2" speed="18.06" />
	<edge id="179642291_1900591683_1900591737_1900591669" from="1900591669" to="1900591649" numLanes="2" speed="18.06" />
	<edge id="179642291_1900591683_1900591737_1900591649" from="1900591649" to="1900591737" numLanes="2" speed="18.06" />
	<edge id="164082325_1900591683_29935410_1900591683" from="1900591683" to="29935411" numLanes="1" speed="18.06" />
	<edge id="164082325_1900591683_29935410_29935411" from="29935411" to="3290256089" numLanes="1" speed="18.06" />
	<edge id="164082325_1900591683_29935410_3290256089" from="3290256089" to="29935410" numLanes="1" speed="18.06" />
	<edge id="179642284_1900591751_1900591679_1900591751" from="1900591751" to="1900591679" numLanes="2" speed="18.06" />
	<edge id="110604217_1262646522_1262646517_1262646522" from="1262646522" to="1262646519" numLanes="2" speed="18.06" />
	<edge id="110604217_1262646522_1262646517_1262646519" from="1262646519" to="1262646521" numLanes="2" speed="18.06" />
	<edge id="110604217_1262646522_1262646517_1262646521" from="1262646521" to="1262646526" numLanes="2" speed="18.06" />
	<edge id="110604217_1262646522_1262646517_1262646526" from="1262646526" to="1262646511" numLanes="2" speed="18.06" />
	<edge id="110604217_1262646522_1262646517_1262646511" from="1262646511" to="1262646517" numLanes="2" speed="18.06" />
	<edge id="164082325_29935410_1900591683_29935410" from="29935410" to="3290256089" numLanes="1" speed="18.06" />
	<edge id="164082325_29935410_1900591683_3290256089" from="3290256089" to="29935411" numLanes="1" speed="18.06" />
	<edge id="164082325_29935410_1900591683_29935411" from="29935411" to="1900591683" numLanes="1" speed="18.06" />
	<edge id="516069144_5038523265_1741873986_5038523265" from="5038523265" to="1741873997" numLanes="2" speed="36.11" />
	<edge id="516069144_5038523265_1741873986_1741873997" from="1741873997" to="1741874013" numLanes="2" speed="36.11" />
	<edge id="516069144_5038523265_1741873986_1741874013" from="1741874013" to="1741873961" numLanes="2" speed="36.11" />
	<edge id="516069144_5038523265_1741873986_1741873961" from="1741873961" to="1741873986" numLanes="2" speed="36.11" />
	<edge id="440934800_29935410_3290256317_29935410" from="29935410" to="29935409" numLanes="1" speed="18.06" />
	<edge id="440934800_29935410_3290256317_29935409" from="29935409" to="29935408" numLanes="1" speed="18.06" />
	<edge id="440934800_29935410_3290256317_29935408" from="29935408" to="3290256317" numLanes="1" speed="18.06" />
	<edge id="142465184_29935377_29935371_29935377" from="29935377" to="29935376" numLanes="1" speed="19.44" />
	<edge id="142465184_29935377_29935371_29935376" from="29935376" to="29935375" numLanes="1" speed="19.44" />
	<edge id="142465184_29935377_29935371_29935375" from="29935375" to="29935833" numLanes="1" speed="19.44" />
	<edge id="142465184_29935377_29935371_29935833" from="29935833" to="29935374" numLanes="1" speed="19.44" />
	<edge id="142465184_29935377_29935371_29935374" from="29935374" to="29935373" numLanes="1" speed="19.44" />
	<edge id="142465184_29935377_29935371_29935373" from="29935373" to="29935372" numLanes="1" speed="19.44" />
	<edge id="142465184_29935377_29935371_29935372" from="29935372" to="29935832" numLanes="1" speed="19.44" />
	<edge id="142465184_29935377_29935371_29935832" from="29935832" to="29935371" numLanes="1" speed="19.44" />
	<edge id="110604217_1262646523_1262646509_1262646523" from="1262646523" to="882342018" numLanes="2" speed="18.06" />
	<edge id="110604217_1262646523_1262646509_882342018" from="882342018" to="1262646527" numLanes="2" speed="18.06" />
	<edge id="110604217_1262646523_1262646509_1262646527" from="1262646527" to="1262646508" numLanes="2" speed="18.06" />
	<edge id="110604217_1262646523_1262646509_1262646508" from="1262646508" to="1262646520" numLanes="2" speed="18.06" />
	<edge id="110604217_1262646523_1262646509_1262646520" from="1262646520" to="882342453" numLanes="2" speed="18.06" />
	<edge id="110604217_1262646523_1262646509_882342453" from="882342453" to="1262646509" numLanes="2" speed="18.06" />
	<edge id="162294685_1656048201_1742074564_1656048201" from="1656048201" to="1742074558" numLanes="2" speed="18.06" />
	<edge id="162294685_1656048201_1742074564_1742074558" from="1742074558" to="1742074557" numLanes="2" speed="18.06" />
	<edge id="162294685_1656048201_1742074564_1742074557" from="1742074557" to="1742074554" numLanes="2" speed="18.06" />
	<edge id="162294685_1656048201_1742074564_1742074554" from="1742074554" to="4386289208" numLanes="2" speed="18.06" />
	<edge id="162294685_1656048201_1742074564_4386289208" from="4386289208" to="1742074553" numLanes="2" speed="18.06" />
	<edge id="162294685_1656048201_1742074564_1742074553" from="1742074553" to="1742074565" numLanes="2" speed="18.06" />
	<edge id="162294685_1656048201_1742074564_1742074565" from="1742074565" to="1742074564" numLanes="2" speed="18.06" />
	<edge id="495719020_882341892_882342119_882341892" from="882341892" to="882342119" numLanes="2" speed="11.11" />
	<edge id="179642286_1745761754_1900591760_1745761754" from="1745761754" to="1900591760" numLanes="1" speed="16.67" />
	<edge id="179642284_3290256241_1900591762_3290256241" from="3290256241" to="1900591753" numLanes="2" speed="18.06" />
	<edge id="179642284_3290256241_1900591762_1900591753" from="1900591753" to="1900591762" numLanes="2" speed="18.06" />
	<edge id="179642282_1900591706_1900591751_1900591706" from="1900591706" to="1900591640" numLanes="2" speed="16.67" />
	<edge id="179642282_1900591706_1900591751_1900591640" from="1900591640" to="1900591751" numLanes="2" speed="16.67" />
	<edge id="162275335_1741874003_1741892109_1741874003" from="1741874003" to="1741892109" numLanes="2" speed="36.11" />
	<edge id="495719021_1656048172_1656047790_1656048172" from="1656048172" to="1656047839" numLanes="2" speed="18.06" />
	<edge id="495719021_1656048172_1656047790_1656047839" from="1656047839" to="4386289184" numLanes="2" speed="18.06" />
	<edge id="495719021_1656048172_1656047790_4386289184" from="4386289184" to="4386289186" numLanes="2" speed="18.06" />
	<edge id="495719021_1656048172_1656047790_4386289186" from="4386289186" to="1656047790" numLanes="2" speed="18.06" />
	<edge id="322253919_3290256084_3290256241_3290256084" from="3290256084" to="3290256241" numLanes="1" speed="8.33" />
	<edge id="162294674_3290260176_882342313_3290260176" from="3290260176" to="3290260186" numLanes="2" speed="18.06" />
	<edge id="162294674_3290260176_882342313_3290260186" from="3290260186" to="3290260190" numLanes="2" speed="18.06" />
	<edge id="162294674_3290260176_882342313_3290260190" from="3290260190" to="1742074556" numLanes="2" speed="18.06" />
	<edge id="162294674_3290260176_882342313_1742074556" from="1742074556" to="1742074548" numLanes="2" speed="18.06" />
	<edge id="162294674_3290260176_882342313_1742074548" from="1742074548" to="882342313" numLanes="2" speed="18.06" />
	<edge id="179642283_29935414_1900591766_29935414" from="29935414" to="1900591791" numLanes="2" speed="18.06" />
	<edge id="179642283_29935414_1900591766_1900591791" from="1900591791" to="1900591668" numLanes="2" speed="18.06" />
	<edge id="179642283_29935414_1900591766_1900591668" from="1900591668" to="1900591741" numLanes="2" speed="18.06" />
	<edge id="179642283_29935414_1900591766_1900591741" from="1900591741" to="1900591766" numLanes="2" speed="18.06" />
	<edge id="162275893_1741874017_1741873994_1741874017" from="1741874017" to="1741873962" numLanes="2" speed="36.11" />
	<edge id="162275893_1741874017_1741873994_1741873962" from="1741873962" to="1741873972" numLanes="2" speed="36.11" />
	<edge id="162275893_1741874017_1741873994_1741873972" from="1741873972" to="4386265693" numLanes="2" speed="36.11" />
	<edge id="162275893_1741874017_1741873994_4386265693" from="4386265693" to="1741873994" numLanes="2" speed="36.11" />
	<edge id="162294685_1742074564_1742074566_1742074564" from="1742074564" to="1742074561" numLanes="2" speed="18.06" />
	<edge id="162294685_1742074564_1742074566_1742074561" from="1742074561" to="1742074551" numLanes="2" speed="18.06" />
	<edge id="162294685_1742074564_1742074566_1742074551" from="1742074551" to="1742074566" numLanes="2" speed="18.06" />
	<edge id="110604217_1262646507_1262646522_1262646507" from="1262646507" to="1262646522" numLanes="2" speed="18.06" />
	<edge id="142465184_29935371_29935377_29935371" from="29935371" to="29935832" numLanes="1" speed="19.44" />
	<edge id="142465184_29935371_29935377_29935832" from="29935832" to="29935372" numLanes="1" speed="19.44" />
	<edge id="142465184_29935371_29935377_29935372" from="29935372" to="29935373" numLanes="1" speed="19.44" />
	<edge id="142465184_29935371_29935377_29935373" from="29935373" to="29935374" numLanes="1" speed="19.44" />
	<edge id="142465184_29935371_29935377_29935374" from="29935374" to="29935833" numLanes="1" speed="19.44" />
	<edge id="142465184_29935371_29935377_29935833" from="29935833" to="29935375" numLanes="1" speed="19.44" />
	<edge id="142465184_29935371_29935377_29935375" from="29935375" to="29935376" numLanes="1" speed="19.44" />
	<edge id="142465184_29935371_29935377_29935376" from="29935376" to="29935377" numLanes="1" speed="19.44" />
	<edge id="322253937_3290256222_3290256317_3290256222" from="3290256222" to="3290256249" numLanes="1" speed="8.33" />
	<edge id="322253937_3290256222_3290256317_3290256249" from="3290256249" to="3290256107" numLanes="1" speed="8.33" />
	<edge id="322253937_3290256222_3290256317_3290256107" from="3290256107" to="3290256317" numLanes="1" speed="8.33" />
	<edge id="74692396_882342313_1900591687_882342313" from="882342313" to="1900591687" numLanes="2" speed="11.11" />
	<edge id="164629061_1262646522_3290260176_1262646522" from="1262646522" to="1762401285" numLanes="2" speed="18.06" />
	<edge id="164629061_1262646522_3290260176_1762401285" from="1762401285" to="1762400990" numLanes="2" speed="18.06" />
	<edge id="164629061_1262646522_3290260176_1762400990" from="1762400990" to="1762401070" numLanes="2" speed="18.06" />
	<edge id="164629061_1262646522_3290260176_1762401070" from="1762401070" to="1762401036" numLanes="2" speed="18.06" />
	<edge id="164629061_1262646522_3290260176_1762401036" from="1762401036" to="1762400986" numLanes="2" speed="18.06" />
	<edge id="164629061_1262646522_3290260176_1762400986" from="1762400986" to="1762401028" numLanes="2" speed="18.06" />
	<edge id="164629061_1262646522_3290260176_1762401028" from="1762401028" to="1762401112" numLanes="2" speed="18.06" />
	<edge id="164629061_1262646522_3290260176_1762401112" from="1762401112" to="1762401097" numLanes="2" speed="18.06" />
	<edge id="164629061_1262646522_3290260176_1762401097" from="1762401097" to="1762400996" numLanes="2" speed="18.06" />
	<edge id="164629061_1262646522_3290260176_1762400996" from="1762400996" to="1762401010" numLanes="2" speed="18.06" />
	<edge id="164629061_1262646522_3290260176_1762401010" from="1762401010" to="1762401287" numLanes="2" speed="18.06" />
	<edge id="164629061_1262646522_3290260176_1762401287" from="1762401287" to="1762400953" numLanes="2" speed="18.06" />
	<edge id="164629061_1262646522_3290260176_1762400953" from="1762400953" to="1762400950" numLanes="2" speed="18.06" />
	<edge id="164629061_1262646522_3290260176_1762400950" from="1762400950" to="1762400980" numLanes="2" speed="18.06" />
	<edge id="164629061_1262646522_3290260176_1762400980" from="1762400980" to="1762401254" numLanes="2" speed="18.06" />
	<edge id="164629061_1262646522_3290260176_1762401254" from="1762401254" to="1762401051" numLanes="2" speed="18.06" />
	<edge id="164629061_1262646522_3290260176_1762401051" from="1762401051" to="1762401136" numLanes="2" speed="18.06" />
	<edge id="164629061_1262646522_3290260176_1762401136" from="1762401136" to="1762401101" numLanes="2" speed="18.06" />
	<edge id="164629061_1262646522_3290260176_1762401101" from="1762401101" to="3290260188" numLanes="2" speed="18.06" />
	<edge id="164629061_1262646522_3290260176_3290260188" from="3290260188" to="3290260179" numLanes="2" speed="18.06" />
	<edge id="164629061_1262646522_3290260176_3290260179" from="3290260179" to="3290260177" numLanes="2" speed="18.06" />
	<edge id="164629061_1262646522_3290260176_3290260177" from="3290260177" to="3290260181" numLanes="2" speed="18.06" />
	<edge id="164629061_1262646522_3290260176_3290260181" from="3290260181" to="3290260176" numLanes="2" speed="18.06" />
	<edge id="162294676_882342119_1656047782_882342119" from="882342119" to="1742074569" numLanes="2" speed="18.06" />
	<edge id="162294676_882342119_1656047782_1742074569" from="1742074569" to="4386289204" numLanes="2" speed="18.06" />
	<edge id="162294676_882342119_1656047782_4386289204" from="4386289204" to="1742074563" numLanes="2" speed="18.06" />
	<edge id="162294676_882342119_1656047782_1742074563" from="1742074563" to="1741892112" numLanes="2" speed="18.06" />
	<edge id="162294676_882342119_1656047782_1741892112" from="1741892112" to="1107528526" numLanes="2" speed="18.06" />
	<edge id="162294676_882342119_1656047782_1107528526" from="1107528526" to="1741892125" numLanes="2" speed="18.06" />
	<edge id="162294676_882342119_1656047782_1741892125" from="1741892125" to="1748746678" numLanes="2" speed="18.06" />
	<edge id="162294676_882342119_1656047782_1748746678" from="1748746678" to="4386289210" numLanes="2" speed="18.06" />
	<edge id="162294676_882342119_1656047782_4386289210" from="4386289210" to="1107528495" numLanes="2" speed="18.06" />
	<edge id="162294676_882342119_1656047782_1107528495" from="1107528495" to="4386289209" numLanes="2" speed="18.06" />
	<edge id="162294676_882342119_1656047782_4386289209" from="4386289209" to="1656048148" numLanes="2" speed="18.06" />
	<edge id="162294676_882342119_1656047782_1656048148" from="1656048148" to="1742074544" numLanes="2" speed="18.06" />
	<edge id="162294676_882342119_1656047782_1742074544" from="1742074544" to="1742074573" numLanes="2" speed="18.06" />
	<edge id="162294676_882342119_1656047782_1742074573" from="1742074573" to="1656047782" numLanes="2" speed="18.06" />
	<edge id="440934800_3290256176_3290256317_3290256176" from="3290256176" to="3290255556" numLanes="1" speed="18.06" />
	<edge id="440934800_3290256176_3290256317_3290255556" from="3290255556" to="3290256106" numLanes="1" speed="18.06" />
	<edge id="440934800_3290256176_3290256317_3290256106" from="3290256106" to="29935400" numLanes="1" speed="18.06" />
	<edge id="440934800_3290256176_3290256317_29935400" from="29935400" to="3290256120" numLanes="1" speed="18.06" />
	<edge id="440934800_3290256176_3290256317_3290256120" from="3290256120" to="29935401" numLanes="1" speed="18.06" />
	<edge id="440934800_3290256176_3290256317_29935401" from="29935401" to="29935402" numLanes="1" speed="18.06" />
	<edge id="440934800_3290256176_3290256317_29935402" from="29935402" to="29935403" numLanes="1" speed="18.06" />
	<edge id="440934800_3290256176_3290256317_29935403" from="29935403" to="1686003767" numLanes="1" speed="18.06" />
	<edge id="440934800_3290256176_3290256317_1686003767" from="1686003767" to="29935404" numLanes="1" speed="18.06" />
	<edge id="440934800_3290256176_3290256317_29935404" from="29935404" to="3290256085" numLanes="1" speed="18.06" />
	<edge id="440934800_3290256176_3290256317_3290256085" from="3290256085" to="3290255523" numLanes="1" speed="18.06" />
	<edge id="440934800_3290256176_3290256317_3290255523" from="3290255523" to="29935406" numLanes="1" speed="18.06" />
	<edge id="440934800_3290256176_3290256317_29935406" from="29935406" to="3290256317" numLanes="1" speed="18.06" />
	<edge id="440934800_3290256317_3290256176_3290256317" from="3290256317" to="29935406" numLanes="1" speed="18.06" />
	<edge id="440934800_3290256317_3290256176_29935406" from="29935406" to="3290255523" numLanes="1" speed="18.06" />
	<edge id="440934800_3290256317_3290256176_3290255523" from="3290255523" to="3290256085" numLanes="1" speed="18.06" />
	<edge id="440934800_3290256317_3290256176_3290256085" from="3290256085" to="29935404" numLanes="1" speed="18.06" />
	<edge id="440934800_3290256317_3290256176_29935404" from="29935404" to="1686003767" numLanes="1" speed="18.06" />
	<edge id="440934800_3290256317_3290256176_1686003767" from="1686003767" to="29935403" numLanes="1" speed="18.06" />
	<edge id="440934800_3290256317_3290256176_29935403" from="29935403" to="29935402" numLanes="1" speed="18.06" />
	<edge id="440934800_3290256317_3290256176_29935402" from="29935402" to="29935401" numLanes="1" speed="18.06" />
	<edge id="440934800_3290256317_3290256176_29935401" from="29935401" to="3290256120" numLanes="1" speed="18.06" />
	<edge id="440934800_3290256317_3290256176_3290256120" from="3290256120" to="29935400" numLanes="1" speed="18.06" />
	<edge id="440934800_3290256317_3290256176_29935400" from="29935400" to="3290256106" numLanes="1" speed="18.06" />
	<edge id="440934800_3290256317_3290256176_3290256106" from="3290256106" to="3290255556" numLanes="1" speed="18.06" />
	<edge id="440934800_3290256317_3290256176_3290255556" from="3290255556" to="3290256176" numLanes="1" speed="18.06" />
	<edge id="74692396_1900591687_1742074555_1900591687" from="1900591687" to="882342225" numLanes="2" speed="11.11" />
	<edge id="74692396_1900591687_1742074555_882342225" from="882342225" to="882342016" numLanes="2" speed="11.11" />
	<edge id="74692396_1900591687_1742074555_882342016" from="882342016" to="882342371" numLanes="2" speed="11.11" />
	<edge id="74692396_1900591687_1742074555_882342371" from="882342371" to="1742074555" numLanes="2" speed="11.11" />
	<edge id="179642292_1900591706_1900591760_1900591706" from="1900591706" to="1900591760" numLanes="1" speed="16.67" />
	<edge id="179642289_29935483_29935414_29935483" from="29935483" to="2895469990" numLanes="1" speed="18.06" />
	<edge id="179642289_29935483_29935414_2895469990" from="2895469990" to="29935482" numLanes="1" speed="18.06" />
	<edge id="179642289_29935483_29935414_29935482" from="29935482" to="29935481" numLanes="1" speed="18.06" />
	<edge id="179642289_29935483_29935414_29935481" from="29935481" to="29935480" numLanes="1" speed="18.06" />
	<edge id="179642289_29935483_29935414_29935480" from="29935480" to="29935479" numLanes="1" speed="18.06" />
	<edge id="179642289_29935483_29935414_29935479" from="29935479" to="2289668395" numLanes="1" speed="18.06" />