<nodes>
	<node id="1748746678" x="495382.5997" y="4271859.6288" z="0.0000" type="priority" />
	<node id="1748746675" x="495260.8034" y="4271371.1505" z="0.0000" type="priority" />
	<node id="1748746674" x="495258.5295" y="4271575.3244" z="0.0000" type="priority" />
	<node id="1900591778" x="495923.5361" y="4272224.1493" z="0.0000" type="priority" />
	<node id="1741885688" x="495495.5988" y="4271767.2539" z="0.0000" type="priority" />
	<node id="1741885689" x="495525.6544" y="4271694.5227" z="0.0000" type="priority" />
	<node id="1762401120" x="495963.2499" y="4271528.1667" z="0.0000" type="priority" />
	<node id="1762401000" x="495958.3828" y="4271599.1302" z="0.0000" type="priority" />
	<node id="1748746673" x="495261.9629" y="4271667.3665" z="0.0000" type="priority" />
	<node id="1748746793" x="495248.5383" y="4271263.3791" z="0.0000" type="priority" />
	<node id="1741885693" x="495403.0869" y="4271641.4630" z="0.0000" type="priority" />
	<node id="1762401113" x="496037.5375" y="4271217.0994" z="0.0000" type="priority" />
	<node id="1741885691" x="495531.1789" y="4271731.6480" z="0.0000" type="priority" />
	<node id="1741885692" x="495343.7921" y="4271719.1827" z="0.0000" type="priority" />
	<node id="1741885690" x="495486.2937" y="4271666.5377" z="0.0000" type="priority" />
	<node id="1900591653" x="495933.3602" y="4272210.2517" z="0.0000" type="priority" />
	<node id="1900591774" x="495911.9275" y="4272222.2688" z="0.0000" type="priority" />
	<node id="1741892097" x="495520.5657" y="4271673.7754" z="0.0000" type="priority" />
	<node id="1748746664" x="495249.5420" y="4271384.3507" z="0.0000" type="priority" />
	<node id="1900591668" x="495904.5326" y="4272269.5653" z="0.0000" type="priority" />
	<node id="1741885698" x="495463.8130" y="4271766.9612" z="0.0000" type="priority" />
	<node id="1741885695" x="495336.6152" y="4271657.4913" z="0.0000" type="priority" />
	<node id="1748746662" x="495249.8361" y="4271483.6849" z="0.0000" type="priority" />
	<node id="1762401111" x="496151.7382" y="4271017.2098" z="0.0000" type="priority" />
	<node id="1900591669" x="495939.9824" y="4272218.3486" z="0.0000" type="priority" />
	<node id="1741885696" x="495388.9790" y="4271641.4156" z="0.0000" type="priority" />
	<node id="1762401112" x="495899.8080" y="4271716.3928" z="0.0000" type="priority" />
	<node id="1762401224" x="496146.3643" y="4271016.5134" z="0.0000" type="priority" />
	<node id="29935396" x="496074.7418" y="4271695.2553" z="0.0000" type="priority" />
	<node id="1762401109" x="495970.9941" y="4271618.8864" z="0.0000" type="priority" />
	<node id="1741892084" x="495321.0424" y="4271654.1049" z="0.0000" type="priority" />
	<node id="1741892082" x="495369.5294" y="4271635.4903" z="0.0000" type="priority" />
	<node id="1748746576" x="495249.9688" y="4271311.0703" z="0.0000" type="priority" />
	<node id="1748746699" x="495258.7762" y="4271594.8649" z="0.0000" type="priority" />
	<node id="1900591753" x="495927.3285" y="4272250.0795" z="0.0000" type="priority" />
	<node id="1748746698" x="495258.3808" y="4271324.5584" z="0.0000" type="priority" />
	<node id="1748746572" x="495249.2437" y="4271278.0369" z="0.0000" type="priority" />
	<node id="1762401142" x="495976.3990" y="4271595.4260" z="0.0000" type="priority" />
	<node id="1762401022" x="495939.7684" y="4271333.5045" z="0.0000" type="priority" />
	<node id="1762401023" x="495880.4239" y="4271718.2670" z="0.0000" type="priority" />
	<node id="1900591636" x="495931.3827" y="4272242.8427" z="0.0000" type="priority" />
	<node id="1900591758" x="495914.5275" y="4272266.3311" z="0.0000" type="priority" />
	<node id="1762401014" x="495925.4606" y="4271677.3428" z="0.0000" type="priority" />
	<node id="1762401015" x="495929.0682" y="4271425.1656" z="0.0000" type="priority" />
	<node id="1762401136" x="495745.7018" y="4271812.0793" z="0.0000" type="priority" />
	<node id="1762401016" x="496033.0768" y="4271213.7949" z="0.0000" type="priority" />
	<node id="1762401138" x="495926.2235" y="4271345.6064" z="0.0000" type="priority" />
	<node id="1900591751" x="495902.0819" y="4272228.2992" z="0.0000" type="priority" />
	<node id="1741892091" x="495534.3525" y="4271691.5219" z="0.0000" type="priority" />
	<node id="882342086" x="495516.2980" y="4272045.6051" z="0.0000" type="priority" />
	<node id="1656047825" x="495264.7290" y="4271661.9166" z="0.0000" type="priority" />
	<node id="1741892095" x="495474.2931" y="4271835.4197" z="0.0000" type="priority" />
	<node id="1741892093" x="495503.0272" y="4271860.3813" z="0.0000" type="priority" />
	<node id="1748746565" x="495261.0100" y="4271425.9774" z="0.0000" type="priority" />
	<node id="1900591645" x="495899.9938" y="4272231.6958" z="0.0000" type="priority" />
	<node id="1900591766" x="495901.6133" y="4272248.2840" z="0.0000" type="priority" />
	<node id="1748746564" x="495254.6095" y="4271265.2397" z="0.0000" type="priority" />
	<node id="1748746566" x="495246.8958" y="4271254.5696" z="0.0000" type="priority" />
	<node id="1762401010" x="495840.4926" y="4271745.7400" z="0.0000" type="priority" />
	<node id="1900591649" x="495938.3645" y="4272221.9114" z="0.0000" type="priority" />
	<node id="1762401011" x="495966.7382" y="4271503.2758" z="0.0000" type="priority" />
	<node id="1762401132" x="496026.5967" y="4271668.4481" z="0.0000" type="priority" />
	<node id="1762401012" x="495973.2902" y="4271526.5416" z="0.0000" type="priority" />
	<node id="1762401254" x="495767.3823" y="4271789.3093" z="0.0000" type="priority" />
	<node id="1900591647" x="495898.5174" y="4272239.4751" z="0.0000" type="priority" />
	<node id="1762401013" x="495850.7439" y="4271731.8087" z="0.0000" type="priority" />
	<node id="1762401134" x="495800.0902" y="4271754.8268" z="0.0000" type="priority" />
	<node id="29935371" x="494922.8964" y="4272365.9119" z="0.0000" type="priority" />
	<node id="3290256176" x="496106.2125" y="4271763.2272" z="0.0000" type="priority" />
	<node id="1762401125" x="495918.5339" y="4271380.2752" z="0.0000" type="priority" />
	<node id="1762401246" x="495939.6116" y="4271436.5229" z="0.0000" type="priority" />
	<node id="29935373" x="495110.1241" y="4272298.5181" z="0.0000" type="priority" />
	<node id="29935372" x="495020.4488" y="4272323.0963" z="0.0000" type="priority" />
	<node id="29935375" x="495283.7212" y="4272236.0523" z="0.0000" type="priority" />
	<node id="1762401007" x="496152.7318" y="4271000.6648" z="0.0000" type="priority" />
	<node id="1900591762" x="495923.5073" y="4272253.0664" z="0.0000" type="priority" />
	<node id="29935374" x="495200.8442" y="4272272.9415" z="0.0000" type="priority" />
	<node id="29935377" x="495423.9416" y="4272124.6745" z="0.0000" type="priority" />
	<node id="1762401009" x="495932.4788" y="4271658.4532" z="0.0000" type="priority" />
	<node id="1900591760" x="495593.4779" y="4272077.2645" z="0.0000" type="priority" />
	<node id="29935376" x="495357.2720" y="4272182.7468" z="0.0000" type="priority" />
	<node id="1900591640" x="495889.7253" y="4272228.0614" z="0.0000" type="priority" />
	<node id="1741892089" x="495466.3811" y="4271857.5946" z="0.0000" type="priority" />
	<node id="1741892086" x="495393.2592" y="4271633.8011" z="0.0000" type="priority" />
	<node id="1183506468" x="495265.4974" y="4271238.6908" z="0.0000" type="priority" />
	<node id="1748746635" x="495261.1191" y="4271609.9878" z="0.0000" type="priority" />
	<node id="1748746637" x="495254.6145" y="4271273.6063" z="0.0000" type="priority" />
	<node id="1748746636" x="495260.7956" y="4271446.1506" z="0.0000" type="priority" />
	<node id="1748746631" x="495279.2485" y="4271651.2333" z="0.0000" type="priority" />
	<node id="1900591699" x="495926.6237" y="4272216.9240" z="0.0000" type="priority" />
	<node id="3290256120" x="496103.6474" y="4271806.9480" z="0.0000" type="priority" />
	<node id="3290256241" x="495930.1305" y="4272246.1278" z="0.0000" type="priority" />
	<node id="1183506460" x="495244.0031" y="4271237.7271" z="0.0000" type="priority" />
	<node id="3290256249" x="496006.2401" y="4271955.1655" z="0.0000" type="priority" />
	<node id="1748746749" x="495255.9476" y="4271627.1236" z="0.0000" type="priority" />
	<node id="4386289216" x="495528.9972" y="4272050.6025" z="0.0000" type="priority" />
	<node id="1748746627" x="495248.9507" y="4271561.8480" z="0.0000" type="priority" />
	<node id="4386289215" x="495558.9818" y="4272055.3905" z="0.0000" type="priority" />
	<node id="4386289218" x="495519.5904" y="4272015.7652" z="0.0000" type="priority" />
	<node id="4386289217" x="495513.0041" y="4272041.5679" z="0.0000" type="priority" />
	<node id="1748746623" x="495273.9591" y="4271645.6106" z="0.0000" type="priority" />
	<node id="1748746746" x="495260.8340" y="4271378.7959" z="0.0000" type="priority" />
	<node id="1748746622" x="495267.9089" y="4271634.6399" z="0.0000" type="priority" />
	<node id="1748746860" x="495260.7129" y="4271453.6851" z="0.0000" type="priority" />
	<node id="4386289205" x="495471.5913" y="4271846.7949" z="0.0000" type="priority" />
	<node id="4386289204" x="495501.9182" y="4272009.7609" z="0.0000" type="priority" />
	<node id="4386289207" x="495292.4631" y="4271702.0135" z="0.0000" type="priority" />
	<node id="4386289206" x="495466.8596" y="4271810.6236" z="0.0000" type="priority" />
	<node id="4386289209" x="495299.8102" y="4271756.4589" z="0.0000" type="priority" />
	<node id="4386289208" x="495305.2202" y="4271745.0597" z="0.0000" type="priority" />
	<node id="1900591679" x="495906.4600" y="4272224.4132" z="0.0000" type="priority" />
	<node id="882341918" x="495511.6102" y="4272025.0462" z="0.0000" type="priority" />
	<node id="1762401221" x="495927.8675" y="4271358.8657" z="0.0000" type="priority" />
	<node id="1748746650" x="495252.4458" y="4271610.7253" z="0.0000" type="priority" />
	<node id="1762401101" x="495730.6889" y="4271828.9760" z="0.0000" type="priority" />
	<node id="1762401212" x="496022.6545" y="4271673.9983" z="0.0000" type="priority" />
	<node id="1900591791" x="495904.3454" y="4272278.1872" z="0.0000" type="priority" />
	<node id="1762401214" x="496055.1192" y="4271195.9300" z="0.0000" type="priority" />
	<node id="1762401215" x="495966.7619" y="4271550.2688" z="0.0000" type="priority" />
	<node id="1762401217" x="495978.9197" y="4271568.6382" z="0.0000" type="priority" />
	<node id="4386289210" x="495320.0057" y="4271787.3503" z="0.0000" type="priority" />
	<node id="1741874003" x="495388.3935" y="4271728.5222" z="0.0000" type="priority" />
	<node id="4386289214" x="495550.1425" y="4272038.5622" z="0.0000" type="priority" />
	<node id="1900591689" x="495899.2074" y="4272243.4028" z="0.0000" type="priority" />
	<node id="5996312087" x="495941.0096" y="4271617.1262" z="0.0000" type="priority" />
	<node id="1900591687" x="495547.8400" y="4272032.3274" z="0.0000" type="priority" />
	<node id="1900591681" x="495928.1707" y="4272228.0640" z="0.0000" type="priority" />
	<node id="1762401206" x="496087.5674" y="4271157.0658" z="0.0000" type="priority" />
	<node id="1900591683" x="495947.3564" y="4272198.0941" z="0.0000" type="priority" />
	<node id="1762401208" x="496110.4487" y="4271126.5730" z="0.0000" type="priority" />
	<node id="4386289201" x="495590.6054" y="4271874.0587" z="0.0000" type="priority" />
	<node id="4386289200" x="495565.3268" y="4271861.0456" z="0.0000" type="priority" />
	<node id="4386289203" x="495482.7715" y="4271967.9385" z="0.0000" type="priority" />
	<node id="4386289202" x="495541.3921" y="4271853.3913" z="0.0000" type="priority" />
	<node id="1747681224" x="495782.2907" y="4272878.5079" z="0.0000" type="priority" />
	<node id="1762401085" x="495931.6242" y="4271347.9006" z="0.0000" type="priority" />
	<node id="1748746830" x="495262.3228" y="4271657.4462" z="0.0000" type="priority" />
	<node id="1762401086" x="495925.5675" y="4271374.1909" z="0.0000" type="priority" />
	<node id="1656048172" x="495299.8369" y="4271653.6624" z="0.0000" type="priority" />
	<node id="882342119" x="495510.3161" y="4272031.1056" z="0.0000" type="priority" />
	<node id="1741892133" x="495472.0820" y="4271821.4173" z="0.0000" type="priority" />
	<node id="1741892132" x="495430.3915" y="4271875.9352" z="0.0000" type="priority" />
	<node id="1741873972" x="496036.3551" y="4272099.9911" z="0.0000" type="priority" />
	<node id="1741892135" x="495520.5363" y="4271854.5570" z="0.0000" type="priority" />
	<node id="1748746821" x="495249.2569" y="4271534.8838" z="0.0000" type="priority" />
	<node id="1762401070" x="495938.0685" y="4271673.3750" z="0.0000" type="priority" />
	<node id="1107528526" x="495424.8646" y="4271911.4244" z="0.0000" type="priority" />
	<node id="1762401072" x="495995.5544" y="4271257.8771" z="0.0000" type="priority" />
	<node id="1762401195" x="495986.1773" y="4271644.7443" z="0.0000" type="priority" />
	<node id="1762401075" x="495929.9148" y="4271668.2304" z="0.0000" type="priority" />
	<node id="1762401076" x="496119.3059" y="4271090.7498" z="0.0000" type="priority" />
	<node id="1762401198" x="495921.1410" y="4271403.7316" z="0.0000" type="priority" />
	<node id="29935431" x="495902.8663" y="4272314.4841" z="0.0000" type="priority" />
	<node id="882342225" x="495546.6157" y="4272038.5642" z="0.0000" type="priority" />
	<node id="1741873962" x="495844.5596" y="4271997.5915" z="0.0000" type="priority" />
	<node id="1741873961" x="495200.6878" y="4271605.9182" z="0.0000" type="priority" />
	<node id="1741892148" x="495479.3959" y="4271881.1226" z="0.0000" type="priority" />
	<node id="1686003767" x="496088.7617" y="4271871.9354" z="0.0000" type="priority" />
	<node id="1741892146" x="495488.8475" y="4271871.1195" z="0.0000" type="priority" />
	<node id="1748746616" x="495260.1266" y="4271507.6358" z="0.0000" type="priority" />
	<node id="882342371" x="495538.4789" y="4272048.0894" z="0.0000" type="priority" />
	<node id="29935411" x="495965.9430" y="4272153.8990" z="0.0000" type="priority" />
	<node id="29935414" x="495903.9519" y="4272291.9802" z="0.0000" type="priority" />
	<node id="1741885700" x="495521.5661" y="4271749.4852" z="0.0000" type="priority" />
	<node id="1656048071" x="495263.8222" y="4271689.4027" z="0.0000" type="priority" />
	<node id="1741892119" x="495416.2215" y="4271873.1692" z="0.0000" type="priority" />
	<node id="1741892118" x="495471.2524" y="4271894.2098" z="0.0000" type="priority" />
	<node id="1741892116" x="495541.0536" y="4271746.0677" z="0.0000" type="priority" />
	<node id="882342018" x="495949.0894" y="4271613.7377" z="0.0000" type="priority" />
	<node id="1741892111" x="495542.1907" y="4271770.6455" z="0.0000" type="priority" />
	<node id="1741873997" x="494817.3088" y="4271321.5586" z="0.0000" type="priority" />
	<node id="1741892110" x="495492.0553" y="4271660.4869" z="0.0000" type="priority" />
	<node id="882342016" x="495543.3706" y="4272044.0254" z="0.0000" type="priority" />
	<node id="1741873994" x="496261.2547" y="4272187.0557" z="0.0000" type="priority" />
	<node id="1741892114" x="495606.6584" y="4271880.5635" z="0.0000" type="priority" />
	<node id="1741892113" x="495557.0436" y="4271811.2054" z="0.0000" type="priority" />
	<node id="1741892112" x="495468.8900" y="4271966.8145" z="0.0000" type="priority" />
	<node id="29935409" x="496010.1264" y="4271995.1770" z="0.0000" type="priority" />
	<node id="29935408" x="496021.2094" y="4271972.5904" z="0.0000" type="priority" />
	<node id="1748746604" x="495260.3661" y="4271485.5762" z="0.0000" type="priority" />
	<node id="1762401093" x="495934.8817" y="4271331.6095" z="0.0000" type="priority" />
	<node id="29935401" x="496102.7202" y="4271816.3471" z="0.0000" type="priority" />
	<node id="29935400" x="496105.7878" y="4271785.3202" z="0.0000" type="priority" />
	<node id="29935403" x="496094.4255" y="4271860.9029" z="0.0000" type="priority" />
	<node id="29935402" x="496100.7534" y="4271836.9206" z="0.0000" type="priority" />
	<node id="1762401097" x="495889.2830" y="4271723.1781" z="0.0000" type="priority" />
	<node id="29935404" x="496081.4091" y="4271883.8565" z="0.0000" type="priority" />
	<node id="29935406" x="496037.9678" y="4271945.1963" z="0.0000" type="priority" />
	<node id="1741892129" x="495540.5145" y="4271716.2855" z="0.0000" type="priority" />
	<node id="1741892127" x="495446.3264" y="4271873.7845" z="0.0000" type="priority" />
	<node id="29935410" x="496000.5342" y="4272020.8920" z="0.0000" type="priority" />
	<node id="1741873986" x="495355.3389" y="4271703.1085" z="0.0000" type="priority" />
	<node id="1741892121" x="495446.6063" y="4271646.4536" z="0.0000" type="priority" />
	<node id="882342120" x="495525.5051" y="4272050.2604" z="0.0000" type="priority" />
	<node id="1741892125" x="495387.4190" y="4271865.8622" z="0.0000" type="priority" />
	<node id="1741892123" x="495372.4174" y="4271735.2336" z="0.0000" type="priority" />
	<node id="1762401040" x="495956.2230" y="4271495.6025" z="0.0000" type="priority" />
	<node id="1762401283" x="495951.6125" y="4271608.8984" z="0.0000" type="priority" />
	<node id="29935479" x="495895.0839" y="4274557.3303" z="0.0000" type="priority" />
	<node id="1762401042" x="495971.4707" y="4271614.2368" z="0.0000" type="priority" />
	<node id="1762401285" x="495949.9761" y="4271662.1173" z="0.0000" type="priority" />
	<node id="3290256084" x="496067.0810" y="4272302.8171" z="0.0000" type="priority" />
	<node id="1762401287" x="495818.5437" y="4271755.5162" z="0.0000" type="priority" />
	<node id="29935481" x="495891.4566" y="4274630.5794" z="0.0000" type="priority" />
	<node id="1762401036" x="495930.3938" y="4271685.4406" z="0.0000" type="priority" />
	<node id="29935480" x="495895.5365" y="4274591.1518" z="0.0000" type="priority" />
	<node id="1762401158" x="495755.9671" y="4271792.0783" z="0.0000" type="priority" />
	<node id="29935483" x="495859.7608" y="4274731.6395" z="0.0000" type="priority" />
	<node id="4386289191" x="495375.6905" y="4271642.6550" z="0.0000" type="priority" />
	<node id="29935482" x="495885.7160" y="4274657.0472" z="0.0000" type="priority" />
	<node id="3290256085" x="496072.5154" y="4271896.4219" z="0.0000" type="priority" />
	<node id="4386289190" x="495362.4118" y="4271645.8140" z="0.0000" type="priority" />
	<node id="4386289193" x="495528.0338" y="4271682.4597" z="0.0000" type="priority" />
	<node id="4386289192" x="495518.2027" y="4271683.9077" z="0.0000" type="priority" />
	<node id="4386289195" x="495526.9522" y="4271741.7147" z="0.0000" type="priority" />
	<node id="3290256089" x="495997.3966" y="4272032.9664" z="0.0000" type="priority" />
	<node id="4386289194" x="495538.4001" y="4271703.9031" z="0.0000" type="priority" />
	<node id="4386289197" x="495547.8904" y="4271794.1776" z="0.0000" type="priority" />
	<node id="4386289196" x="495452.0191" y="4271762.0855" z="0.0000" type="priority" />
	<node id="4386289199" x="495567.0661" y="4271825.5031" z="0.0000" type="priority" />
	<node id="4386289198" x="495544.0786" y="4271782.9836" z="0.0000" type="priority" />
	<node id="29935466" x="495861.6249" y="4273422.4656" z="0.0000" type="priority" />
	<node id="1762401030" x="496123.9776" y="4271098.1820" z="0.0000" type="priority" />
	<node id="29935468" x="495865.4876" y="4273601.8031" z="0.0000" type="priority" />
	<node id="1762401031" x="495927.9163" y="4271403.2732" z="0.0000" type="priority" />
	<node id="1762401033" x="496148.9389" y="4271027.6861" z="0.0000" type="priority" />
	<node id="1762401035" x="496155.5376" y="4271003.6816" z="0.0000" type="priority" />
	<node id="29935470" x="495870.5494" y="4273810.5232" z="0.0000" type="priority" />
	<node id="29935472" x="495876.9077" y="4274035.4213" z="0.0000" type="priority" />
	<node id="1762401027" x="495930.6995" y="4271413.3028" z="0.0000" type="priority" />
	<node id="4386289180" x="495532.2119" y="4271710.2426" z="0.0000" type="priority" />
	<node id="1762401028" x="495911.9513" y="4271706.6218" z="0.0000" type="priority" />
	<node id="29935474" x="495882.2998" y="4274142.7649" z="0.0000" type="priority" />
	<node id="4386289182" x="495420.2492" y="4271637.6582" z="0.0000" type="priority" />
	<node id="4386289181" x="495508.4449" y="4271676.3566" z="0.0000" type="priority" />
	<node id="29935476" x="495887.3271" y="4274319.9382" z="0.0000" type="priority" />
	<node id="4386289184" x="495310.9999" y="4271666.3056" z="0.0000" type="priority" />
	<node id="29935475" x="495885.6895" y="4274250.3869" z="0.0000" type="priority" />
	<node id="4386289183" x="495344.3405" y="4271643.8494" z="0.0000" type="priority" />
	<node id="4386289186" x="495312.9642" y="4271674.6046" z="0.0000" type="priority" />
	<node id="4386289185" x="495293.2865" y="4271651.0031" z="0.0000" type="priority" />
	<node id="1563650059" x="496030.2150" y="4272115.5734" z="0.0000" type="priority" />
	<node id="4386289188" x="495321.8782" y="4271668.5740" z="0.0000" type="priority" />
	<node id="4386289187" x="495260.3998" y="4271674.7909" z="0.0000" type="priority" />
	<node id="4386289189" x="495328.8671" y="4271661.6902" z="0.0000" type="priority" />
	<node id="1747681121" x="495879.0620" y="4274076.7653" z="0.0000" type="priority" />
	<node id="1748746817" x="495250.6010" y="4271598.5981" z="0.0000" type="priority" />
	<node id="1762401181" x="495926.2717" y="4271388.8488" z="0.0000" type="priority" />
	<node id="29935456" x="495777.0634" y="4272922.1748" z="0.0000" type="priority" />
	<node id="29935455" x="495800.6346" y="4272725.1244" z="0.0000" type="priority" />
	<node id="1762401062" x="496137.7464" y="4271061.4244" z="0.0000" type="priority" />
	<node id="29935458" x="495776.9827" y="4273000.1490" z="0.0000" type="priority" />
	<node id="1762401063" x="495936.2876" y="4271339.0544" z="0.0000" type="priority" />
	<node id="29935457" x="495773.1661" y="4272961.7687" z="0.0000" type="priority" />
	<node id="1656048148" x="495291.9703" y="4271737.7218" z="0.0000" type="priority" />
	<node id="1762401064" x="495893.9702" y="4271710.3483" z="0.0000" type="priority" />
	<node id="29935459" x="495786.4636" y="4273031.2138" z="0.0000" type="priority" />
	<node id="1762401068" x="496001.1905" y="4271260.8592" z="0.0000" type="priority" />
	<node id="29935461" x="495829.4911" y="4273143.1091" z="0.0000" type="priority" />
	<node id="1656048150" x="495268.6799" y="4271657.2538" z="0.0000" type="priority" />
	<node id="29935463" x="495855.2973" y="4273225.0534" z="0.0000" type="priority" />
	<node id="4386289171" x="495579.0123" y="4271838.2683" z="0.0000" type="priority" />
	<node id="29935462" x="495845.1590" y="4273184.5792" z="0.0000" type="priority" />
	<node id="4386289173" x="495459.5302" y="4271800.5966" z="0.0000" type="priority" />
	<node id="29935464" x="495858.8576" y="4273273.8312" z="0.0000" type="priority" />
	<node id="4386289172" x="495466.2144" y="4271793.9683" z="0.0000" type="priority" />
	<node id="4386289175" x="495386.0628" y="4271749.0407" z="0.0000" type="priority" />
	<node id="4386289174" x="495402.5643" y="4271762.5354" z="0.0000" type="priority" />
	<node id="4386289177" x="495440.2244" y="4271756.0558" z="0.0000" type="priority" />
	<node id="4386289176" x="495405.7873" y="4271733.8717" z="0.0000" type="priority" />
	<node id="4386289179" x="495510.4861" y="4271759.9442" z="0.0000" type="priority" />
	<node id="4386289178" x="495479.7066" y="4271768.3725" z="0.0000" type="priority" />
	<node id="1563650088" x="496256.0804" y="4272201.7274" z="0.0000" type="priority" />
	<node id="1762401051" x="495756.9028" y="4271799.5123" z="0.0000" type="priority" />
	<node id="29935447" x="495896.1030" y="4272421.6007" z="0.0000" type="priority" />
	<node id="1762401173" x="495717.3702" y="4271838.3484" z="0.0000" type="priority" />
	<node id="1762401053" x="495950.7392" y="4271311.6392" z="0.0000" type="priority" />
	<node id="1762401174" x="496116.7486" y="4271115.1740" z="0.0000" type="priority" />
	<node id="2289668395" x="495892.1829" y="4274468.5718" z="0.0000" type="priority" />
	<node id="29935449" x="495887.1365" y="4272477.0204" z="0.0000" type="priority" />
	<node id="1762401054" x="495820.3843" y="4271744.8516" z="0.0000" type="priority" />
	<node id="1762401175" x="495956.2125" y="4271474.9078" z="0.0000" type="priority" />
	<node id="29935448" x="495893.9217" y="4272446.8904" z="0.0000" type="priority" />
	<node id="1762401177" x="496045.2884" y="4271199.4524" z="0.0000" type="priority" />
	<node id="1762401178" x="496107.6143" y="4271118.4741" z="0.0000" type="priority" />
	<node id="1762401047" x="496048.1150" y="4271685.1486" z="0.0000" type="priority" />
	<node id="1762401048" x="496102.0416" y="4271138.6721" z="0.0000" type="priority" />
	<node id="29935450" x="495876.0419" y="4272508.7284" z="0.0000" type="priority" />
	<node id="1762401049" x="495946.3306" y="4271325.0902" z="0.0000" type="priority" />
	<node id="29935452" x="495836.3902" y="4272597.4532" z="0.0000" type="priority" />
	<node id="29935454" x="495808.6019" y="4272675.4640" z="0.0000" type="priority" />
	<node id="29935453" x="495820.3718" y="4272637.3308" z="0.0000" type="priority" />
	<node id="1656048201" x="495302.8073" y="4271699.4774" z="0.0000" type="priority" />
	<node id="29935832" x="494985.7985" y="4272333.8925" z="0.0000" type="priority" />
	<node id="1656047476" x="495286.2495" y="4271650.1639" z="0.0000" type="priority" />
	<node id="256342071" x="496162.0928" y="4270979.4774" z="0.0000" type="priority" />
	<node id="29935833" x="495251.4771" y="4272252.7936" z="0.0000" type="priority" />
	<node id="1762400942" x="495994.6102" y="4271650.7543" z="0.0000" type="priority" />
	<node id="1762400943" x="495924.8569" y="4271415.4030" z="0.0000" type="priority" />
	<node id="1762400944" x="496137.9702" y="4271037.9222" z="0.0000" type="priority" />
	<node id="4386366660" x="495931.0905" y="4272233.3776" z="0.0000" type="priority" />
	<node id="1656048215" x="495273.6155" y="4271653.6223" z="0.0000" type="priority" />
	<node id="1747668635" x="495884.8793" y="4274215.5114" z="0.0000" type="priority" />
	<node id="5038523265" x="494623.6060" y="4271179.4980" z="0.0000" type="priority" />
	<node id="5038523264" x="494611.1573" y="4271187.1851" z="0.0000" type="priority" />
	<node id="4386366659" x="495906.0129" y="4272252.4983" z="0.0000" type="priority" />
	<node id="882341890" x="495525.4062" y="4272013.5760" z="0.0000" type="priority" />
	<node id="1762400939" x="495737.0553" y="4271813.7151" z="0.0000" type="priority" />
	<node id="1107528495" x="495309.3822" y="4271773.6526" z="0.0000" type="priority" />
	<node id="882341892" x="495510.9550" y="4272036.7976" z="0.0000" type="priority" />
	<node id="1563649988" x="495835.1205" y="4272015.3838" z="0.0000" type="priority" />
	<node id="1656048104" x="495268.5109" y="4271695.3698" z="0.0000" type="priority" />
	<node id="1762400960" x="495919.7209" y="4271368.3794" z="0.0000" type="priority" />
	<node id="1762400962" x="496112.9822" y="4271106.8314" z="0.0000" type="priority" />
	<node id="1563649736" x="495011.0675" y="4271480.6900" z="0.0000" type="priority" />
	<node id="1762400963" x="495922.0313" y="4271356.3165" z="0.0000" type="priority" />
	<node id="1762400965" x="496100.8443" y="4271130.1063" z="0.0000" type="priority" />
	<node id="1762400966" x="495916.1493" y="4271690.5633" z="0.0000" type="priority" />
	<node id="1762400967" x="495785.3605" y="4271764.1776" z="0.0000" type="priority" />
	<node id="1762400950" x="495790.9637" y="4271771.1543" z="0.0000" type="priority" />
	<node id="1762400951" x="495942.6615" y="4271457.2271" z="0.0000" type="priority" />
	<node id="1762400953" x="495805.4672" y="4271762.2696" z="0.0000" type="priority" />
	<node id="1762400954" x="495992.4897" y="4271659.3883" z="0.0000" type="priority" />
	<node id="1762400955" x="495919.0103" y="4271392.3700" z="0.0000" type="priority" />
	<node id="3290255523" x="496050.6816" y="4271927.2472" z="0.0000" type="priority" />
	<node id="1762400958" x="496086.8406" y="4271148.9547" z="0.0000" type="priority" />
	<node id="1656047790" x="495312.1506" y="4271683.0937" z="0.0000" type="priority" />
	<node id="3290260189" x="495633.1703" y="4271935.6645" z="0.0000" type="priority" />
	<node id="3290260188" x="495712.5443" y="4271851.8774" z="0.0000" type="priority" />
	<node id="3290260187" x="495472.0894" y="4272080.6723" z="0.0000" type="priority" />
	<node id="3290260186" x="495602.8250" y="4271972.4322" z="0.0000" type="priority" />
	<node id="3290260185" x="495466.9576" y="4272091.1390" z="0.0000" type="priority" />
	<node id="3290260184" x="495431.9326" y="4272119.5434" z="0.0000" type="priority" />
	<node id="3290260183" x="495457.8510" y="4272094.6396" z="0.0000" type="priority" />
	<node id="3290260182" x="495587.1440" y="4271976.9348" z="0.0000" type="priority" />
	<node id="882342313" x="495547.4982" y="4272028.3107" z="0.0000" type="priority" />
	<node id="3290260181" x="495649.0937" y="4271928.3655" z="0.0000" type="priority" />
	<node id="3290260180" x="495648.6277" y="4271920.2210" z="0.0000" type="priority" />
	<node id="1741892108" x="495457.2342" y="4271867.2647" z="0.0000" type="priority" />
	<node id="1741892107" x="495465.6988" y="4271913.5872" z="0.0000" type="priority" />
	<node id="3290260179" x="495682.4779" y="4271890.4312" z="0.0000" type="priority" />
	<node id="1741892105" x="495471.0124" y="4271947.1173" z="0.0000" type="priority" />
	<node id="3290260178" x="495660.7167" y="4271907.7422" z="0.0000" type="priority" />
	<node id="3290260177" x="495666.0908" y="4271909.8254" z="0.0000" type="priority" />
	<node id="3290260176" x="495615.2016" y="4271960.7964" z="0.0000" type="priority" />
	<node id="1563649903" x="495613.8636" y="4271886.9399" z="0.0000" type="priority" />
	<node id="1741892109" x="495608.5812" y="4271861.5433" z="0.0000" type="priority" />
	<node id="1257142127" x="495255.8514" y="4271259.2358" z="0.0000" type="priority" />
	<node id="1741892104" x="495466.7892" y="4271932.3726" z="0.0000" type="priority" />
	<node id="882342453" x="495967.4153" y="4271619.7537" z="0.0000" type="priority" />