<connections>
	<connection from="74692396_1742074555_882342120_1742074555" to="74692396_1742074555_882342120_4386289216" />
	<connection from="74692396_1742074555_882342120_4386289216" to="495719020_882342120_882341892_882342120" />
	<connection from="74692396_1742074555_882342120_4386289216" to="162294672_882342120_29935377_882342120" />
	<connection from="152827372_1748746673_1748746631_1748746673" to="152827372_1748746673_1748746631_1656047825" />
	<connection from="152827372_1748746673_1748746631_1656047825" to="152827372_1748746673_1748746631_1656048150" />
	<connection from="152827372_1748746673_1748746631_1656048150" to="152827372_1748746673_1748746631_1656048215" />
	<connection from="152827372_1748746673_1748746631_1656048215" to="495719021_1748746631_1656048172_1748746631" />
	<connection from="179642284_1900591766_1900591689_1900591766" to="179642284_1900591689_1900591751_1900591689" />
	<connection from="179642284_1900591766_1900591689_1900591766" to="179642290_1900591689_1900591706_1900591689" />
	<connection from="495719020_882342120_882341892_882342120" to="495719020_882342120_882341892_1742074570" />
	<connection from="495719020_882342120_882341892_1742074570" to="495719020_882342120_882341892_882342086" />
	<connection from="495719020_882342120_882341892_882342086" to="495719020_882342120_882341892_4386289217" />
	<connection from="495719020_882342120_882341892_4386289217" to="495719020_882341892_882342119_882341892" />
	<connection from="109923217_1183506468_1748746631_1183506468" to="109923217_1183506468_1748746631_1257142127" />
	<connection from="109923217_1183506468_1748746631_1257142127" to="109923217_1183506468_1748746631_1748746564" />
	<connection from="109923217_1183506468_1748746631_1748746564" to="109923217_1183506468_1748746631_1748746637" />
	<connection from="109923217_1183506468_1748746631_1748746637" to="109923217_1183506468_1748746631_1748746698" />
	<connection from="109923217_1183506468_1748746631_1748746698" to="109923217_1183506468_1748746631_1748746675" />
	<connection from="109923217_1183506468_1748746631_1748746675" to="109923217_1183506468_1748746631_1748746746" />
	<connection from="109923217_1183506468_1748746631_1748746746" to="109923217_1183506468_1748746631_1748746565" />
	<connection from="109923217_1183506468_1748746631_1748746565" to="109923217_1183506468_1748746631_1748746636" />
	<connection from="109923217_1183506468_1748746631_1748746636" to="109923217_1183506468_1748746631_1748746860" />
	<connection from="109923217_1183506468_1748746631_1748746860" to="109923217_1183506468_1748746631_1748746604" />
	<connection from="109923217_1183506468_1748746631_1748746604" to="109923217_1183506468_1748746631_1748746616" />
	<connection from="109923217_1183506468_1748746631_1748746616" to="109923217_1183506468_1748746631_1748746674" />
	<connection from="109923217_1183506468_1748746631_1748746674" to="109923217_1183506468_1748746631_1748746699" />
	<connection from="109923217_1183506468_1748746631_1748746699" to="109923217_1183506468_1748746631_1748746635" />
	<connection from="109923217_1183506468_1748746631_1748746635" to="109923217_1183506468_1748746631_1748746622" />
	<connection from="109923217_1183506468_1748746631_1748746622" to="109923217_1183506468_1748746631_1748746623" />
	<connection from="109923217_1183506468_1748746631_1748746623" to="495719021_1748746631_1656048172_1748746631" />
	<connection from="162275333_1741873986_1741874003_1741873986" to="162275335_1741874003_1741892109_1741874003" />
	<connection from="162275333_1741873986_1741874003_1741873986" to="162275337_1741874003_1656047790_1741874003" />
	<connection from="110604216_29935396_1262646507_29935396" to="110604216_29935396_1262646507_1762401047" />
	<connection from="110604216_29935396_1262646507_1762401047" to="110604216_29935396_1262646507_1762401212" />
	<connection from="110604216_29935396_1262646507_1762401212" to="110604216_29935396_1262646507_1762400954" />
	<connection from="110604216_29935396_1262646507_1762400954" to="110604216_29935396_1262646507_882342446" />
	<connection from="110604216_29935396_1262646507_882342446" to="110604217_1262646507_1262646522_1262646507" />
	<connection from="110604217_1262646517_1262646523_1262646517" to="110604217_1262646517_1262646523_1980820507" />
	<connection from="110604217_1262646517_1262646523_1980820507" to="110604217_1262646517_1262646523_1262646524" />
	<connection from="110604217_1262646517_1262646523_1262646524" to="110604217_1262646517_1262646523_5996308582" />
	<connection from="110604217_1262646517_1262646523_5996308582" to="110604217_1262646517_1262646523_1262646525" />
	<connection from="110604217_1262646517_1262646523_1262646525" to="110604217_1262646517_1262646523_1262646518" />
	<connection from="110604217_1262646517_1262646523_1262646518" to="110604217_1262646517_1262646523_1262646515" />
	<connection from="110604217_1262646517_1262646523_1262646515" to="110604217_1262646517_1262646523_5996312087" />
	<connection from="110604217_1262646517_1262646523_5996312087" to="110604217_1262646523_1262646509_1262646523" />
	<connection from="110604217_1262646517_1262646523_5996312087" to="164629049_1262646523_256342071_1262646523" />
	<connection from="179642292_1900591760_1900591706_1900591760" to="179642282_1900591706_1900591751_1900591706" />
	<connection from="179642292_1900591760_1900591706_1900591760" to="179642292_1900591706_1900591760_1900591706" />
	<connection from="162294683_29935377_882341892_29935377" to="162294683_29935377_882341892_3290260197" />
	<connection from="162294683_29935377_882341892_3290260197" to="162294683_29935377_882341892_3290260192" />
	<connection from="162294683_29935377_882341892_3290260192" to="162294683_29935377_882341892_3290260183" />
	<connection from="162294683_29935377_882341892_3290260183" to="162294683_29935377_882341892_3290260187" />
	<connection from="162294683_29935377_882341892_3290260187" to="162294683_29935377_882341892_1742074543" />
	<connection from="162294683_29935377_882341892_1742074543" to="162294683_29935377_882341892_1742074571" />
	<connection from="162294683_29935377_882341892_1742074571" to="495719020_882341892_882342119_882341892" />
	<connection from="179642288_1900591727_1900591683_1900591727" to="179642288_1900591727_1900591683_1900591699" />
	<connection from="179642288_1900591727_1900591683_1900591699" to="179642288_1900591727_1900591683_1900591653" />
	<connection from="179642288_1900591727_1900591683_1900591653" to="164082325_1900591683_29935410_1900591683" />
	<connection from="110604217_1262646510_1262646507_1262646510" to="110604217_1262646510_1262646507_1262646513" />
	<connection from="110604217_1262646510_1262646507_1262646513" to="110604217_1262646510_1262646507_1262646516" />
	<connection from="110604217_1262646510_1262646507_1262646516" to="110604217_1262646507_1262646522_1262646507" />
	<connection from="179642284_1900591737_3290256241_1900591737" to="179642284_1900591737_3290256241_1900591636" />
	<connection from="179642284_1900591737_3290256241_1900591636" to="179642284_3290256241_1900591762_3290256241" />
	<connection from="179642284_1900591737_3290256241_1900591636" to="322253919_3290256241_3290256084_3290256241" />
	<connection from="322253937_3290256317_3290256222_3290256317" to="322253937_3290256317_3290256222_3290256107" />
	<connection from="322253937_3290256317_3290256222_3290256107" to="322253937_3290256317_3290256222_3290256249" />
	<connection from="322253937_3290256317_3290256222_3290256249" to="322253937_3290256222_3290256317_3290256222" />
	<connection from="179642289_29935414_29935483_29935414" to="179642289_29935414_29935483_29935431" />
	<connection from="179642289_29935414_29935483_29935431" to="179642289_29935414_29935483_29935447" />
	<connection from="179642289_29935414_29935483_29935447" to="179642289_29935414_29935483_29935448" />
	<connection from="179642289_29935414_29935483_29935448" to="179642289_29935414_29935483_29935449" />
	<connection from="179642289_29935414_29935483_29935449" to="179642289_29935414_29935483_29935450" />
	<connection from="179642289_29935414_29935483_29935450" to="179642289_29935414_29935483_29935452" />
	<connection from="179642289_29935414_29935483_29935452" to="179642289_29935414_29935483_29935453" />
	<connection from="179642289_29935414_29935483_29935453" to="179642289_29935414_29935483_29935454" />
	<connection from="179642289_29935414_29935483_29935454" to="179642289_29935414_29935483_29935455" />
	<connection from="179642289_29935414_29935483_29935455" to="179642289_29935414_29935483_1747681224" />
	<connection from="179642289_29935414_29935483_1747681224" to="179642289_29935414_29935483_29935456" />
	<connection from="179642289_29935414_29935483_29935456" to="179642289_29935414_29935483_29935457" />
	<connection from="179642289_29935414_29935483_29935457" to="179642289_29935414_29935483_29935458" />
	<connection from="179642289_29935414_29935483_29935458" to="179642289_29935414_29935483_29935459" />
	<connection from="179642289_29935414_29935483_29935459" to="179642289_29935414_29935483_29935461" />
	<connection from="179642289_29935414_29935483_29935461" to="179642289_29935414_29935483_29935462" />
	<connection from="179642289_29935414_29935483_29935462" to="179642289_29935414_29935483_2289519826" />
	<connection from="179642289_29935414_29935483_2289519826" to="179642289_29935414_29935483_29935463" />
	<connection from="179642289_29935414_29935483_29935463" to="179642289_29935414_29935483_29935464" />
	<connection from="179642289_29935414_29935483_29935464" to="179642289_29935414_29935483_29935466" />
	<connection from="179642289_29935414_29935483_29935466" to="179642289_29935414_29935483_29935468" />
	<connection from="179642289_29935414_29935483_29935468" to="179642289_29935414_29935483_29935470" />
	<connection from="179642289_29935414_29935483_29935470" to="179642289_29935414_29935483_29935472" />
	<connection from="179642289_29935414_29935483_29935472" to="179642289_29935414_29935483_1747681121" />
	<connection from="179642289_29935414_29935483_1747681121" to="179642289_29935414_29935483_29935474" />
	<connection from="179642289_29935414_29935483_29935474" to="179642289_29935414_29935483_1747668635" />
	<connection from="179642289_29935414_29935483_1747668635" to="179642289_29935414_29935483_4018085152" />
	<connection from="179642289_29935414_29935483_4018085152" to="179642289_29935414_29935483_4018085154" />
	<connection from="179642289_29935414_29935483_4018085154" to="179642289_29935414_29935483_29935475" />
	<connection from="179642289_29935414_29935483_29935475" to="179642289_29935414_29935483_4861644638" />
	<connection from="179642289_29935414_29935483_4861644638" to="179642289_29935414_29935483_29935476" />
	<connection from="179642289_29935414_29935483_29935476" to="179642289_29935414_29935483_2289668395" />
	<connection from="179642289_29935414_29935483_2289668395" to="179642289_29935414_29935483_29935479" />
	<connection from="179642289_29935414_29935483_29935479" to="179642289_29935414_29935483_29935480" />
	<connection from="179642289_29935414_29935483_29935480" to="179642289_29935414_29935483_29935481" />
	<connection from="179642289_29935414_29935483_29935481" to="179642289_29935414_29935483_29935482" />
	<connection from="179642289_29935414_29935483_29935482" to="179642289_29935414_29935483_2895469990" />
	<connection from="179642289_29935414_29935483_2895469990" to="179642289_29935483_29935414_29935483" />
	<connection from="162275898_1741892109_1741874017_1741892109" to="162275893_1741874017_1741873994_1741874017" />
	<connection from="179642291_1900591683_1900591737_1900591683" to="179642291_1900591683_1900591737_1900591669" />
	<connection from="179642291_1900591683_1900591737_1900591669" to="179642291_1900591683_1900591737_1900591649" />
	<connection from="179642291_1900591683_1900591737_1900591649" to="179642284_1900591737_3290256241_1900591737" />
	<connection from="164082325_1900591683_29935410_1900591683" to="164082325_1900591683_29935410_29935411" />
	<connection from="164082325_1900591683_29935410_29935411" to="164082325_1900591683_29935410_3290256089" />
	<connection from="164082325_1900591683_29935410_3290256089" to="164082325_29935410_1900591683_29935410" />
	<connection from="164082325_1900591683_29935410_3290256089" to="440934800_29935410_3290256317_29935410" />
	<connection from="179642284_1900591751_1900591679_1900591751" to="179642284_1900591679_1900591727_1900591679" />
	<connection from="110604217_1262646522_1262646517_1262646522" to="110604217_1262646522_1262646517_1262646519" />
	<connection from="110604217_1262646522_1262646517_1262646519" to="110604217_1262646522_1262646517_1262646521" />
	<connection from="110604217_1262646522_1262646517_1262646521" to="110604217_1262646522_1262646517_1262646526" />
	<connection from="110604217_1262646522_1262646517_1262646526" to="110604217_1262646522_1262646517_1262646511" />
	<connection from="110604217_1262646522_1262646517_1262646511" to="110604217_1262646517_1262646523_1262646517" />
	<connection from="164082325_29935410_1900591683_29935410" to="164082325_29935410_1900591683_3290256089" />
	<connection from="164082325_29935410_1900591683_3290256089" to="164082325_29935410_1900591683_29935411" />
	<connection from="164082325_29935410_1900591683_29935411" to="179642291_1900591683_1900591737_1900591683" />
	<connection from="164082325_29935410_1900591683_29935411" to="164082325_1900591683_29935410_1900591683" />
	<connection from="516069144_5038523265_1741873986_5038523265" to="516069144_5038523265_1741873986_1741873997" />
	<connection from="516069144_5038523265_1741873986_1741873997" to="516069144_5038523265_1741873986_1741874013" />
	<connection from="516069144_5038523265_1741873986_1741874013" to="516069144_5038523265_1741873986_1741873961" />
	<connection from="516069144_5038523265_1741873986_1741873961" to="162275333_1741873986_1741874003_1741873986" />
	<connection from="440934800_29935410_3290256317_29935410" to="440934800_29935410_3290256317_29935409" />
	<connection from="440934800_29935410_3290256317_29935409" to="440934800_29935410_3290256317_29935408" />
	<connection from="440934800_29935410_3290256317_29935408" to="322253937_3290256317_3290256222_3290256317" />
	<connection from="440934800_29935410_3290256317_29935408" to="440934800_3290256317_29935410_3290256317" />
	<connection from="440934800_29935410_3290256317_29935408" to="440934800_3290256317_3290256176_3290256317" />
	<connection from="142465184_29935377_29935371_29935377" to="142465184_29935377_29935371_29935376" />
	<connection from="142465184_29935377_29935371_29935376" to="142465184_29935377_29935371_29935375" />
	<connection from="142465184_29935377_29935371_29935375" to="142465184_29935377_29935371_29935833" />
	<connection from="142465184_29935377_29935371_29935833" to="142465184_29935377_29935371_29935374" />
	<connection from="142465184_29935377_29935371_29935374" to="142465184_29935377_29935371_29935373" />
	<connection from="142465184_29935377_29935371_29935373" to="142465184_29935377_29935371_29935372" />
	<connection from="142465184_29935377_29935371_29935372" to="142465184_29935377_29935371_29935832" />
	<connection from="142465184_29935377_29935371_29935832" to="142465184_29935371_29935377_29935371" />
	<connection from="110604217_1262646523_1262646509_1262646523" to="110604217_1262646523_1262646509_882342018" />
	<connection from="110604217_1262646523_1262646509_882342018" to="110604217_1262646523_1262646509_1262646527" />
	<connection from="110604217_1262646523_1262646509_1262646527" to="110604217_1262646523_1262646509_1262646508" />
	<connection from="110604217_1262646523_1262646509_1262646508" to="110604217_1262646523_1262646509_1262646520" />
	<connection from="110604217_1262646523_1262646509_1262646520" to="110604217_1262646523_1262646509_882342453" />
	<connection from="110604217_1262646523_1262646509_882342453" to="110604217_1262646509_1980820506_1262646509" />
	<connection from="162294685_1656048201_1742074564_1656048201" to="162294685_1656048201_1742074564_1742074558" />
	<connection from="162294685_1656048201_1742074564_1742074558" to="162294685_1656048201_1742074564_1742074557" />
	<connection from="162294685_1656048201_1742074564_1742074557" to="162294685_1656048201_1742074564_1742074554" />
	<connection from="162294685_1656048201_1742074564_1742074554" to="162294685_1656048201_1742074564_4386289208" />
	<connection from="162294685_1656048201_1742074564_4386289208" to="162294685_1656048201_1742074564_1742074553" />
	<connection from="162294685_1656048201_1742074564_1742074553" to="162294685_1656048201_1742074564_1742074565" />
	<connection from="162294685_1656048201_1742074564_1742074565" to="162275336_1742074564_1741892123_1742074564" />
	<connection from="162294685_1656048201_1742074564_1742074565" to="162294685_1742074564_1742074566_1742074564" />
	<connection from="495719020_882341892_882342119_882341892" to="162294676_882342119_1656047782_882342119" />
	<connection from="495719020_882341892_882342119_882341892" to="495719020_882342119_882341890_882342119" />
	<connection from="179642286_1745761754_1900591760_1745761754" to="179642286_1900591760_1745761754_1900591760" />
	<connection from="179642286_1745761754_1900591760_1745761754" to="179642292_1900591760_1900591706_1900591760" />
	<connection from="179642284_3290256241_1900591762_3290256241" to="179642284_3290256241_1900591762_1900591753" />
	<connection from="179642284_3290256241_1900591762_1900591753" to="179642284_1900591762_1900591766_1900591762" />
	<connection from="179642284_3290256241_1900591762_1900591753" to="179642285_1900591762_29935414_1900591762" />
	<connection from="179642282_1900591706_1900591751_1900591706" to="179642282_1900591706_1900591751_1900591640" />
	<connection from="179642282_1900591706_1900591751_1900591640" to="179642284_1900591751_1900591679_1900591751" />
	<connection from="162275335_1741874003_1741892109_1741874003" to="162275898_1741892109_1741874017_1741892109" />
	<connection from="495719021_1656048172_1656047790_1656048172" to="495719021_1656048172_1656047790_1656047839" />
	<connection from="495719021_1656048172_1656047790_1656047839" to="495719021_1656048172_1656047790_4386289184" />
	<connection from="495719021_1656048172_1656047790_4386289184" to="495719021_1656048172_1656047790_4386289186" />
	<connection from="495719021_1656048172_1656047790_4386289186" to="495719021_1656047790_1656048201_1656047790" />
	<connection from="322253919_3290256084_3290256241_3290256084" to="179642284_3290256241_1900591762_3290256241" />
	<connection from="322253919_3290256084_3290256241_3290256084" to="322253919_3290256241_3290256084_3290256241" />
	<connection from="162294674_3290260176_882342313_3290260176" to="162294674_3290260176_882342313_3290260186" />
	<connection from="162294674_3290260176_882342313_3290260186" to="162294674_3290260176_882342313_3290260190" />
	<connection from="162294674_3290260176_882342313_3290260190" to="162294674_3290260176_882342313_1742074556" />
	<connection from="162294674_3290260176_882342313_1742074556" to="162294674_3290260176_882342313_1742074548" />
	<connection from="162294674_3290260176_882342313_1742074548" to="74692396_882342313_1900591687_882342313" />
	<connection from="179642283_29935414_1900591766_29935414" to="179642283_29935414_1900591766_1900591791" />
	<connection from="179642283_29935414_1900591766_1900591791" to="179642283_29935414_1900591766_1900591668" />
	<connection from="179642283_29935414_1900591766_1900591668" to="179642283_29935414_1900591766_1900591741" />
	<connection from="179642283_29935414_1900591766_1900591741" to="179642284_1900591766_1900591689_1900591766" />
	<connection from="162275893_1741874017_1741873994_1741874017" to="162275893_1741874017_1741873994_1741873962" />
	<connection from="162275893_1741874017_1741873994_1741873962" to="162275893_1741874017_1741873994_1741873972" />
	<connection from="162275893_1741874017_1741873994_1741873972" to="162275893_1741874017_1741873994_4386265693" />
	<connection from="162294685_1742074564_1742074566_1742074564" to="162294685_1742074564_1742074566_1742074561" />
	<connection from="162294685_1742074564_1742074566_1742074561" to="162294685_1742074564_1742074566_1742074551" />
	<connection from="162294685_1742074564_1742074566_1742074551" to="162294685_1742074566_882341890_1742074566" />
	<connection from="110604217_1262646507_1262646522_1262646507" to="164629061_1262646522_3290260176_1262646522" />
	<connection from="110604217_1262646507_1262646522_1262646507" to="110604217_1262646522_1262646517_1262646522" />
	<connection from="142465184_29935371_29935377_29935371" to="142465184_29935371_29935377_29935832" />
	<connection from="142465184_29935371_29935377_29935832" to="142465184_29935371_29935377_29935372" />
	<connection from="142465184_29935371_29935377_29935372" to="142465184_29935371_29935377_29935373" />
	<connection from="142465184_29935371_29935377_29935373" to="142465184_29935371_29935377_29935374" />
	<connection from="142465184_29935371_29935377_29935374" to="142465184_29935371_29935377_29935833" />
	<connection from="142465184_29935371_29935377_29935833" to="142465184_29935371_29935377_29935375" />
	<connection from="142465184_29935371_29935377_29935375" to="142465184_29935371_29935377_29935376" />
	<connection from="142465184_29935371_29935377_29935376" to="142465184_29935377_29935371_29935377" />
	<connection from="142465184_29935371_29935377_29935376" to="162294683_29935377_882341892_29935377" />
	<connection from="322253937_3290256222_3290256317_3290256222" to="322253937_3290256222_3290256317_3290256249" />
	<connection from="322253937_3290256222_3290256317_3290256249" to="322253937_3290256222_3290256317_3290256107" />
	<connection from="322253937_3290256222_3290256317_3290256107" to="322253937_3290256317_3290256222_3290256317" />
	<connection from="322253937_3290256222_3290256317_3290256107" to="440934800_3290256317_29935410_3290256317" />
	<connection from="322253937_3290256222_3290256317_3290256107" to="440934800_3290256317_3290256176_3290256317" />
	<connection from="74692396_882342313_1900591687_882342313" to="162742736_1900591687_1745761754_1900591687" />
	<connection from="74692396_882342313_1900591687_882342313" to="74692396_1900591687_1742074555_1900591687" />
	<connection from="164629061_1262646522_3290260176_1262646522" to="164629061_1262646522_3290260176_1762401285" />
	<connection from="164629061_1262646522_3290260176_1762401285" to="164629061_1262646522_3290260176_1762400990" />
	<connection from="164629061_1262646522_3290260176_1762400990" to="164629061_1262646522_3290260176_1762401070" />
	<connection from="164629061_1262646522_3290260176_1762401070" to="164629061_1262646522_3290260176_1762401036" />
	<connection from="164629061_1262646522_3290260176_1762401036" to="164629061_1262646522_3290260176_1762400986" />
	<connection from="164629061_1262646522_3290260176_1762400986" to="164629061_1262646522_3290260176_1762401028" />
	<connection from="164629061_1262646522_3290260176_1762401028" to="164629061_1262646522_3290260176_1762401112" />
	<connection from="164629061_1262646522_3290260176_1762401112" to="164629061_1262646522_3290260176_1762401097" />
	<connection from="164629061_1262646522_3290260176_1762401097" to="164629061_1262646522_3290260176_1762400996" />
	<connection from="164629061_1262646522_3290260176_1762400996" to="164629061_1262646522_3290260176_1762401010" />
	<connection from="164629061_1262646522_3290260176_1762401010" to="164629061_1262646522_3290260176_1762401287" />
	<connection from="164629061_1262646522_3290260176_1762401287" to="164629061_1262646522_3290260176_1762400953" />
	<connection from="164629061_1262646522_3290260176_1762400953" to="164629061_1262646522_3290260176_1762400950" />
	<connection from="164629061_1262646522_3290260176_1762400950" to="164629061_1262646522_3290260176_1762400980" />
	<connection from="164629061_1262646522_3290260176_1762400980" to="164629061_1262646522_3290260176_1762401254" />
	<connection from="164629061_1262646522_3290260176_1762401254" to="164629061_1262646522_3290260176_1762401051" />
	<connection from="164629061_1262646522_3290260176_1762401051" to="164629061_1262646522_3290260176_1762401136" />
	<connection from="164629061_1262646522_3290260176_1762401136" to="164629061_1262646522_3290260176_1762401101" />
	<connection from="164629061_1262646522_3290260176_1762401101" to="164629061_1262646522_3290260176_3290260188" />
	<connection from="164629061_1262646522_3290260176_3290260188" to="164629061_1262646522_3290260176_3290260179" />
	<connection from="164629061_1262646522_3290260176_3290260179" to="164629061_1262646522_3290260176_3290260177" />
	<connection from="164629061_1262646522_3290260176_3290260177" to="164629061_1262646522_3290260176_3290260181" />
	<connection from="164629061_1262646522_3290260176_3290260181" to="162294674_3290260176_882342313_3290260176" />
	<connection from="162294676_882342119_1656047782_882342119" to="162294676_882342119_1656047782_1742074569" />
	<connection from="162294676_882342119_1656047782_1742074569" to="162294676_882342119_1656047782_4386289204" />
	<connection from="162294676_882342119_1656047782_4386289204" to="162294676_882342119_1656047782_1742074563" />
	<connection from="162294676_882342119_1656047782_1742074563" to="162294676_882342119_1656047782_1741892112" />
	<connection from="162294676_882342119_1656047782_1741892112" to="162294676_882342119_1656047782_1107528526" />
	<connection from="162294676_882342119_1656047782_1107528526" to="162294676_882342119_1656047782_1741892125" />
	<connection from="162294676_882342119_1656047782_1741892125" to="162294676_882342119_1656047782_1748746678" />
	<connection from="162294676_882342119_1656047782_1748746678" to="162294676_882342119_1656047782_4386289210" />
	<connection from="162294676_882342119_1656047782_4386289210" to="162294676_882342119_1656047782_1107528495" />
	<connection from="162294676_882342119_1656047782_1107528495" to="162294676_882342119_1656047782_4386289209" />
	<connection from="162294676_882342119_1656047782_4386289209" to="162294676_882342119_1656047782_1656048148" />
	<connection from="162294676_882342119_1656047782_1656048148" to="162294676_882342119_1656047782_1742074544" />
	<connection from="162294676_882342119_1656047782_1742074544" to="162294676_882342119_1656047782_1742074573" />
	<connection from="162294676_882342119_1656047782_1742074573" to="152827372_1656047782_1748746673_1656047782" />
	<connection from="440934800_3290256176_3290256317_3290256176" to="440934800_3290256176_3290256317_3290255556" />
	<connection from="440934800_3290256176_3290256317_3290255556" to="440934800_3290256176_3290256317_3290256106" />
	<connection from="440934800_3290256176_3290256317_3290256106" to="440934800_3290256176_3290256317_29935400" />
	<connection from="440934800_3290256176_3290256317_29935400" to="440934800_3290256176_3290256317_3290256120" />
	<connection from="440934800_3290256176_3290256317_3290256120" to="440934800_3290256176_3290256317_29935401" />
	<connection from="440934800_3290256176_3290256317_29935401" to="440934800_3290256176_3290256317_29935402" />
	<connection from="440934800_3290256176_3290256317_29935402" to="440934800_3290256176_3290256317_29935403" />
	<connection from="440934800_3290256176_3290256317_29935403" to="440934800_3290256176_3290256317_1686003767" />
	<connection from="440934800_3290256176_3290256317_1686003767" to="440934800_3290256176_3290256317_29935404" />
	<connection from="440934800_3290256176_3290256317_29935404" to="440934800_3290256176_3290256317_3290256085" />
	<connection from="440934800_3290256176_3290256317_3290256085" to="440934800_3290256176_3290256317_3290255523" />
	<connection from="440934800_3290256176_3290256317_3290255523" to="440934800_3290256176_3290256317_29935406" />
	<connection from="440934800_3290256176_3290256317_29935406" to="322253937_3290256317_3290256222_3290256317" />
	<connection from="440934800_3290256176_3290256317_29935406" to="440934800_3290256317_29935410_3290256317" />
	<connection from="440934800_3290256176_3290256317_29935406" to="440934800_3290256317_3290256176_3290256317" />
	<connection from="440934800_3290256317_3290256176_3290256317" to="440934800_3290256317_3290256176_29935406" />
	<connection from="440934800_3290256317_3290256176_29935406" to="440934800_3290256317_3290256176_3290255523" />
	<connection from="440934800_3290256317_3290256176_3290255523" to="440934800_3290256317_3290256176_3290256085" />
	<connection from="440934800_3290256317_3290256176_3290256085" to="440934800_3290256317_3290256176_29935404" />
	<connection from="440934800_3290256317_3290256176_29935404" to="440934800_3290256317_3290256176_1686003767" />
	<connection from="440934800_3290256317_3290256176_1686003767" to="440934800_3290256317_3290256176_29935403" />
	<connection from="440934800_3290256317_3290256176_29935403" to="440934800_3290256317_3290256176_29935402" />
	<connection from="440934800_3290256317_3290256176_29935402" to="440934800_3290256317_3290256176_29935401" />
	<connection from="440934800_3290256317_3290256176_29935401" to="440934800_3290256317_3290256176_3290256120" />
	<connection from="440934800_3290256317_3290256176_3290256120" to="440934800_3290256317_3290256176_29935400" />
	<connection from="440934800_3290256317_3290256176_29935400" to="440934800_3290256317_3290256176_3290256106" />
	<connection from="440934800_3290256317_3290256176_3290256106" to="440934800_3290256317_3290256176_3290255556" />
	<connection from="440934800_3290256317_3290256176_3290255556" to="440934800_3290256176_3290256317_3290256176" />
	<connection from="74692396_1900591687_1742074555_1900591687" to="74692396_1900591687_1742074555_882342225" />
	<connection from="74692396_1900591687_1742074555_882342225" to="74692396_1900591687_1742074555_882342016" />
	<connection from="74692396_1900591687_1742074555_882342016" to="74692396_1900591687_1742074555_882342371" />