<?xml version="1.0" ?>
<!-- Generated by VSimRTI -->
<routes>
	<vType id="default" length="7.5" maxSpeed="50" minGap="2.0" carFollowModel="Krauss" accel="0.80" decel="4.5" sigma="0.5" tau="1"/>
	<route id="1" edges="162275333_1741873986_1741874003_1741873986 162275335_1741874003_1741892109_1741874003 162275898_1741892109_1741874017_1741892109" />
	<route id="2" edges="162275333_1741873986_1741874003_1741873986 162275337_1741874003_1656047790_1741874003 162275337_1741874003_1656047790_4386289176 162275337_1741874003_1656047790_4386289177 162275337_1741874003_1656047790_4386289196 162275337_1741874003_1656047790_1741885698 162275337_1741874003_1656047790_4386289178 162275337_1741874003_1656047790_1741885688 162275337_1741874003_1656047790_4386289179 162275337_1741874003_1656047790_1741885700 162275337_1741874003_1656047790_4386289195 162275337_1741874003_1656047790_1741885691 162275337_1741874003_1656047790_4386289180 162275337_1741874003_1656047790_1741885689 162275337_1741874003_1656047790_4386289192 162275337_1741874003_1656047790_4386289181 162275337_1741874003_1656047790_1741885690 162275337_1741874003_1656047790_1741885693 162275337_1741874003_1656047790_1741885696 162275337_1741874003_1656047790_4386289191 162275337_1741874003_1656047790_4386289190 162275337_1741874003_1656047790_1741885695 162275337_1741874003_1656047790_4386289189 162275337_1741874003_1656047790_4386289188 495719021_1656047790_1656048201_1656047790 495719021_1656047790_1656048201_1656047898 162294685_1656048201_1742074564_1656048201 162294685_1656048201_1742074564_1742074558 162294685_1656048201_1742074564_1742074557 162294685_1656048201_1742074564_1742074554 162294685_1656048201_1742074564_4386289208 162294685_1656048201_1742074564_1742074553 162294685_1656048201_1742074564_1742074565 162294685_1742074564_1742074566_1742074564 162294685_1742074564_1742074566_1742074561 162294685_1742074564_1742074566_1742074551 162294685_1742074566_882341890_1742074566 162294685_1742074566_882341890_1742074550 162294685_1742074566_882341890_1742074574 162294685_1742074566_882341890_1742074562 162294685_1742074566_882341890_1742074575 162294680_882341890_1762401173_882341890 162294680_882341890_1762401173_1742074545 162294680_882341890_1762401173_1742074546 162294680_882341890_1762401173_3290260182 162294680_882341890_1762401173_3290260194 162294680_882341890_1762401173_3290260189 162294680_882341890_1762401173_3290260180 162294680_882341890_1762401173_3290260178 162294680_882341890_1762401173_3290260196 162294680_882341890_1762401173_3290260191 164629047_1762401173_1262646517_1762401173 164629047_1762401173_1262646517_1762400939 164629047_1762401173_1262646517_1762401158 164629047_1762401173_1262646517_1762400971 164629047_1762401173_1262646517_1762400967 164629047_1762401173_1262646517_1762401134 164629047_1762401173_1262646517_1762401054 164629047_1762401173_1262646517_1762401013 164629047_1762401173_1262646517_1762401023 164629047_1762401173_1262646517_1762401064 164629047_1762401173_1262646517_1762400989 164629047_1762401173_1262646517_1762400966 164629047_1762401173_1262646517_1762401014 164629047_1762401173_1262646517_1762401075 164629047_1762401173_1262646517_1762401009 110604217_1262646517_1262646523_1262646517" />
	<route id="3" edges="162275333_1741873986_1741874003_1741873986 162275337_1741874003_1656047790_1741874003 162275337_1741874003_1656047790_4386289176 162275337_1741874003_1656047790_4386289177 162275337_1741874003_1656047790_4386289196 162275337_1741874003_1656047790_1741885698 162275337_1741874003_1656047790_4386289178 162275337_1741874003_1656047790_1741885688 162275337_1741874003_1656047790_4386289179 162275337_1741874003_1656047790_1741885700 162275337_1741874003_1656047790_4386289195 162275337_1741874003_1656047790_1741885691 162275337_1741874003_1656047790_4386289180 162275337_1741874003_1656047790_1741885689 162275337_1741874003_1656047790_4386289192 162275337_1741874003_1656047790_4386289181 162275337_1741874003_1656047790_1741885690 162275337_1741874003_1656047790_1741885693 162275337_1741874003_1656047790_1741885696 162275337_1741874003_1656047790_4386289191 162275337_1741874003_1656047790_4386289190 162275337_1741874003_1656047790_1741885695 162275337_1741874003_1656047790_4386289189 162275337_1741874003_1656047790_4386289188 495719021_1656047790_1656048201_1656047790 495719021_1656047790_1656048201_1656047898 162294685_1656048201_1742074564_1656048201 162294685_1656048201_1742074564_1742074558 162294685_1656048201_1742074564_1742074557 162294685_1656048201_1742074564_1742074554 162294685_1656048201_1742074564_4386289208 162294685_1656048201_1742074564_1742074553 162294685_1656048201_1742074564_1742074565 162294685_1742074564_1742074566_1742074564 162294685_1742074564_1742074566_1742074561 162294685_1742074564_1742074566_1742074551 162294685_1742074566_882341890_1742074566 162294685_1742074566_882341890_1742074550 162294685_1742074566_882341890_1742074574 162294685_1742074566_882341890_1742074562 162294685_1742074566_882341890_1742074575 74692396_882341890_882342313_882341890 74692396_882341890_882342313_1742074547 74692396_882341890_882342313_882341993 74692396_882341890_882342313_882341859 74692396_882341890_882342313_1742074552 74692396_882342313_1900591687_882342313 74692396_1900591687_1742074555_1900591687 74692396_1900591687_1742074555_882342225 74692396_1900591687_1742074555_882342016 74692396_1900591687_1742074555_882342371 74692396_1742074555_882342120_1742074555 74692396_1742074555_882342120_4386289216 162294672_882342120_29935377_882342120 162294672_882342120_29935377_1742074568 162294672_882342120_29935377_1742074559 162294672_882342120_29935377_3290260195 162294672_882342120_29935377_3290260185" />
	<route id="4" edges="162275333_1741873986_1741874003_1741873986 162275337_1741874003_1656047790_1741874003 162275337_1741874003_1656047790_4386289176 162275337_1741874003_1656047790_4386289177 162275337_1741874003_1656047790_4386289196 162275337_1741874003_1656047790_1741885698 162275337_1741874003_1656047790_4386289178 162275337_1741874003_1656047790_1741885688 162275337_1741874003_1656047790_4386289179 162275337_1741874003_1656047790_1741885700 162275337_1741874003_1656047790_4386289195 162275337_1741874003_1656047790_1741885691 162275337_1741874003_1656047790_4386289180 162275337_1741874003_1656047790_1741885689 162275337_1741874003_1656047790_4386289192 162275337_1741874003_1656047790_4386289181 162275337_1741874003_1656047790_1741885690 162275337_1741874003_1656047790_1741885693 162275337_1741874003_1656047790_1741885696 162275337_1741874003_1656047790_4386289191 162275337_1741874003_1656047790_4386289190 162275337_1741874003_1656047790_1741885695 162275337_1741874003_1656047790_4386289189 162275337_1741874003_1656047790_4386289188 495719021_1656047790_1656048201_1656047790 495719021_1656047790_1656048201_1656047898 152827372_1656048201_1656047782_1656048201 152827372_1656048201_1656047782_4386289207 152827372_1656048201_1656047782_1656047623 152827372_1656047782_1748746673_1656047782 152827372_1656047782_1748746673_1656048104 152827372_1656047782_1748746673_1656048071 152827372_1656047782_1748746673_1656047964 152827372_1656047782_1748746673_4386289187 109923221_1748746673_1183506460_1748746673 109923221_1748746673_1183506460_1748746830 109923221_1748746673_1183506460_1748746584 109923221_1748746673_1183506460_1748746749 109923221_1748746673_1183506460_1748746650 109923221_1748746673_1183506460_1748746817" />
	<route id="5" edges="142465184_29935371_29935377_29935374 142465184_29935371_29935377_29935833 142465184_29935371_29935377_29935375 142465184_29935371_29935377_29935376 162294683_29935377_882341892_29935377 162294683_29935377_882341892_3290260197 162294683_29935377_882341892_3290260192 162294683_29935377_882341892_3290260183 162294683_29935377_882341892_3290260187 162294683_29935377_882341892_1742074543 162294683_29935377_882341892_1742074571 495719020_882341892_882342119_882341892 162294676_882342119_1656047782_882342119 162294676_882342119_1656047782_1742074569 162294676_882342119_1656047782_4386289204 162294676_882342119_1656047782_1742074563 162294676_882342119_1656047782_1741892112 162294676_882342119_1656047782_1107528526 162294676_882342119_1656047782_1741892125 162294676_882342119_1656047782_1748746678 162294676_882342119_1656047782_4386289210 162294676_882342119_1656047782_1107528495 162294676_882342119_1656047782_4386289209 162294676_882342119_1656047782_1656048148 162294676_882342119_1656047782_1742074544 162294676_882342119_1656047782_1742074573 152827372_1656047782_1748746673_1656047782 152827372_1656047782_1748746673_1656048104 152827372_1656047782_1748746673_1656048071 152827372_1656047782_1748746673_1656047964 152827372_1656047782_1748746673_4386289187 109923221_1748746673_1183506460_1748746673 109923221_1748746673_1183506460_1748746830 109923221_1748746673_1183506460_1748746584 109923221_1748746673_1183506460_1748746749 109923221_1748746673_1183506460_1748746650 109923221_1748746673_1183506460_1748746817 109923221_1748746673_1183506460_1748746627 109923221_1748746673_1183506460_1748746821" />
	<route id="6" edges="142465184_29935371_29935377_29935374 142465184_29935371_29935377_29935833 142465184_29935371_29935377_29935375 142465184_29935371_29935377_29935376 162294683_29935377_882341892_29935377 162294683_29935377_882341892_3290260197 162294683_29935377_882341892_3290260192 162294683_29935377_882341892_3290260183 162294683_29935377_882341892_3290260187 162294683_29935377_882341892_1742074543 162294683_29935377_882341892_1742074571 495719020_882341892_882342119_882341892 162294676_882342119_1656047782_882342119 162294676_882342119_1656047782_1742074569 162294676_882342119_1656047782_4386289204 162294676_882342119_1656047782_1742074563 162294676_882342119_1656047782_1741892112 162294676_882342119_1656047782_1107528526 162294676_882342119_1656047782_1741892125 162294676_882342119_1656047782_1748746678 162294676_882342119_1656047782_4386289210 162294676_882342119_1656047782_1107528495 162294676_882342119_1656047782_4386289209 162294676_882342119_1656047782_1656048148 162294676_882342119_1656047782_1742074544 162294676_882342119_1656047782_1742074573 152827372_1656047782_1748746673_1656047782 152827372_1656047782_1748746673_1656048104 152827372_1656047782_1748746673_1656048071 152827372_1656047782_1748746673_1656047964 152827372_1656047782_1748746673_4386289187 152827372_1748746673_1748746631_1748746673 152827372_1748746673_1748746631_1656047825 152827372_1748746673_1748746631_1656048150 152827372_1748746673_1748746631_1656048215 495719021_1748746631_1656048172_1748746631 495719021_1748746631_1656048172_1656047476 495719021_1748746631_1656048172_4386289185 162275892_1656048172_1741892109_1656048172 162275892_1656048172_1741892109_1741892084 162275892_1656048172_1741892109_4386289183 162275892_1656048172_1741892109_1741892082 162275892_1656048172_1741892109_1741892086 162275892_1656048172_1741892109_4386289182 162275892_1656048172_1741892109_1741892121 162275892_1656048172_1741892109_1741892110 162275892_1656048172_1741892109_1741892097 162275892_1656048172_1741892109_4386289193 162275892_1656048172_1741892109_1741892091 162275892_1656048172_1741892109_4386289194 162275892_1656048172_1741892109_1741892129 162275892_1656048172_1741892109_1741892116 162275892_1656048172_1741892109_1741892111 162275892_1656048172_1741892109_4386289198 162275892_1656048172_1741892109_4386289197 162275892_1656048172_1741892109_1741892113 162275892_1656048172_1741892109_4386289199 162275892_1656048172_1741892109_4386289171 162275898_1741892109_1741874017_1741892109 162275893_1741874017_1741873994_1741874017" />
	<route id="7" edges="162275900_1563649903_1741892114_1563649903 162275902_1741892114_1742074566_1741892114 162275902_1741892114_1742074566_4386289201 162275902_1741892114_1742074566_4386289200 162275902_1741892114_1742074566_4386289202 162275902_1741892114_1742074566_1741892135 162275902_1741892114_1742074566_1741892093 162275902_1741892114_1742074566_1741892146 162275902_1741892114_1742074566_1741892148 162275902_1741892114_1742074566_1741892118 162275902_1741892114_1742074566_1741892107 162275902_1741892114_1742074566_1741892104 162275902_1741892114_1742074566_1741892105 162275902_1741892114_1742074566_4386289203 162294685_1742074566_882341890_1742074566 162294685_1742074566_882341890_1742074550 162294685_1742074566_882341890_1742074574 162294685_1742074566_882341890_1742074562 162294685_1742074566_882341890_1742074575 74692396_882341890_882342313_882341890 74692396_882341890_882342313_1742074547 74692396_882341890_882342313_882341993 74692396_882341890_882342313_882341859 74692396_882341890_882342313_1742074552 74692396_882342313_1900591687_882342313 74692396_1900591687_1742074555_1900591687 74692396_1900591687_1742074555_882342225 74692396_1900591687_1742074555_882342016 74692396_1900591687_1742074555_882342371 74692396_1742074555_882342120_1742074555 74692396_1742074555_882342120_4386289216 162294672_882342120_29935377_882342120 162294672_882342120_29935377_1742074568 162294672_882342120_29935377_1742074559 162294672_882342120_29935377_3290260195 162294672_882342120_29935377_3290260185 162294672_882342120_29935377_3290260193 162294672_882342120_29935377_3290260184 142465184_29935377_29935371_29935377 142465184_29935377_29935371_29935376 142465184_29935377_29935371_29935375 142465184_29935377_29935371_29935833 142465184_29935377_29935371_29935374 142465184_29935377_29935371_29935373 142465184_29935377_29935371_29935372 142465184_29935377_29935371_29935832 142465184_29935371_29935377_29935371 142465184_29935371_29935377_29935832 142465184_29935371_29935377_29935372 142465184_29935371_29935377_29935373" />
</routes>