<?xml version="1.0" encoding="UTF-8"?>

<!-- generated on Mon Jul 20 14:36:04 2020 by Eclipse SUMO netconvert Version 1.2.0
<configuration xmlns:xsi="http://www.w3.org/2001/XMLSchema-instance" xsi:noNamespaceSchemaLocation="http://sumo.dlr.de/xsd/netconvertConfiguration.xsd">

    <input>
        <node-files value="/home/vsimrti/scenarios/ids/sumo/gualtar19/gualtar19.nod.xml"/>
        <edge-files value="/home/vsimrti/scenarios/ids/sumo/gualtar19/gualtar19.edg.xml"/>
        <connection-files value="/home/vsimrti/scenarios/ids/sumo/gualtar19/gualtar19.con.xml"/>
    </input>

    <output>
        <output-file value="/home/vsimrti/scenarios/ids/sumo/gualtar19/gualtar19.net.xml"/>
    </output>

</configuration>
-->

<net version="1.1" junctionCornerDetail="5" limitTurnSpeed="5.50" xmlns:xsi="http://www.w3.org/2001/XMLSchema-instance" xsi:noNamespaceSchemaLocation="http://sumo.dlr.de/xsd/net_file.xsd">

    <location netOffset="-494611.16,-4270979.48" convBoundary="0.00,0.00,1650.10,3752.16" origBoundary="494611.16,4270979.48,496261.25,4274731.64" projParameter="!"/>

    <edge id=":1107528495_0" function="internal">
        <lane id=":1107528495_0_0" index="0" speed="18.06" length="0.49" shape="694.43,797.12 694.30,796.95 694.21,796.82 694.14,796.70 694.03,796.51"/>
        <lane id=":1107528495_0_1" index="1" speed="18.06" length="0.49" shape="696.96,795.16 696.92,795.10 696.89,795.06 696.86,795.02 696.83,794.95"/>
    </edge>
    <edge id=":1107528526_0" function="internal">
        <lane id=":1107528526_0_0" index="0" speed="18.06" length="0.29" shape="810.06,935.07 809.89,934.86"/>
        <lane id=":1107528526_0_1" index="1" speed="18.06" length="0.29" shape="812.56,933.08 812.36,932.83"/>
    </edge>
    <edge id=":1257142127_0" function="internal">
        <lane id=":1257142127_0_0" index="0" speed="18.06" length="0.75" shape="649.36,281.11 649.31,281.22 649.29,281.29 649.26,281.36 649.24,281.47"/>
        <lane id=":1257142127_0_1" index="1" speed="18.06" length="0.75" shape="646.46,279.75 646.32,280.06 646.24,280.27 646.18,280.49 646.11,280.82"/>
    </edge>
    <edge id=":1262646507_0" function="internal">
        <lane id=":1262646507_0_0" index="0" speed="13.38" length="11.13" shape="1362.99,679.46 1359.99,678.89 1357.85,678.37 1355.81,678.37 1353.09,679.38"/>
        <lane id=":1262646507_0_1" index="1" speed="14.52" length="11.13" shape="1363.37,676.28 1359.82,675.66 1357.29,675.16 1354.87,675.28 1351.65,676.52"/>
    </edge>
    <edge id=":1262646507_2" function="internal">
        <lane id=":1262646507_2_0" index="0" speed="18.06" length="10.94" shape="1361.99,672.32 1359.62,674.77 1357.94,676.41 1356.06,677.77 1353.09,679.38"/>
        <lane id=":1262646507_2_1" index="1" speed="18.06" length="10.94" shape="1359.72,670.07 1357.57,672.29 1356.05,673.80 1354.35,675.05 1351.65,676.52"/>
    </edge>
    <edge id=":1262646508_0" function="internal">
        <lane id=":1262646508_0_0" index="0" speed="18.06" length="3.73" shape="1348.77,630.47 1349.94,630.77 1350.70,631.10 1351.43,631.50 1352.52,632.05"/>
        <lane id=":1262646508_0_1" index="1" speed="18.06" length="3.73" shape="1348.12,633.60 1349.08,633.86 1349.69,634.15 1350.29,634.50 1351.18,634.96"/>
    </edge>
    <edge id=":1262646509_0" function="internal">
        <lane id=":1262646509_0_0" index="0" speed="9.20" length="4.64" shape="1364.48,641.36 1364.40,642.48 1364.44,643.25 1364.66,644.00 1365.12,645.03"/>
        <lane id=":1262646509_0_1" index="1" speed="10.97" length="4.64" shape="1361.29,641.07 1361.18,642.69 1361.24,643.81 1361.56,644.89 1362.21,646.37"/>
    </edge>
    <edge id=":1262646509_2" function="internal">
        <lane id=":1262646509_2_0" index="0" speed="18.06" length="5.52" shape="1362.17,639.92 1363.25,641.31 1363.88,642.33 1364.40,643.42 1365.12,645.03"/>
        <lane id=":1262646509_2_1" index="1" speed="18.06" length="5.52" shape="1359.70,641.95 1360.62,643.15 1361.16,644.03 1361.59,644.98 1362.21,646.37"/>
    </edge>
    <edge id=":1262646510_0" function="internal">
        <lane id=":1262646510_0_0" index="0" speed="13.52" length="0.99" shape="1367.65,655.61 1367.70,656.04 1367.72,656.34 1367.70,656.64 1367.63,657.08"/>
        <lane id=":1262646510_0_1" index="1" speed="18.06" length="0.99" shape="1364.48,656.05 1364.50,656.20 1364.50,656.30 1364.49,656.40 1364.47,656.54"/>
    </edge>
    <edge id=":1262646511_0" function="internal">
        <lane id=":1262646511_0_0" index="0" speed="18.06" length="3.86" shape="1323.03,675.82 1322.05,675.03 1321.48,674.38 1320.98,673.65 1320.21,672.64"/>
        <lane id=":1262646511_0_1" index="1" speed="18.06" length="3.86" shape="1324.90,673.22 1324.12,672.58 1323.68,672.04 1323.30,671.43 1322.69,670.61"/>
    </edge>
    <edge id=":1262646513_0" function="internal">
        <lane id=":1262646513_0_0" index="0" speed="13.56" length="0.99" shape="1366.51,663.67 1366.43,664.10 1366.35,664.39 1366.24,664.67 1366.04,665.06"/>
        <lane id=":1262646513_0_1" index="1" speed="18.06" length="0.99" shape="1363.35,663.13 1363.32,663.28 1363.30,663.37 1363.26,663.47 1363.20,663.60"/>
    </edge>
    <edge id=":1262646514_0" function="internal">
        <lane id=":1262646514_0_0" index="0" speed="18.06" length="0.49" shape="1371.77,655.08 1371.82,655.14 1371.85,655.18 1371.88,655.22 1371.93,655.27"/>
        <lane id=":1262646514_0_1" index="1" speed="18.06" length="0.49" shape="1369.18,656.95 1369.30,657.12 1369.40,657.24 1369.50,657.35 1369.65,657.51"/>
    </edge>
    <edge id=":1262646515_0" function="internal">
        <lane id=":1262646515_0_0" index="0" speed="10.14" length="1.15" shape="1321.01,638.12 1321.31,637.71 1321.55,637.45 1321.82,637.22 1322.24,636.94"/>
        <lane id=":1262646515_0_1" index="1" speed="18.06" length="1.15" shape="1323.60,640.00 1323.70,639.86 1323.78,639.77 1323.87,639.70 1324.01,639.60"/>
    </edge>
    <edge id=":1262646516_0" function="internal">
        <lane id=":1262646516_0_0" index="0" speed="13.50" length="0.99" shape="1362.98,671.01 1362.77,671.40 1362.61,671.66 1362.42,671.89 1362.11,672.20"/>
        <lane id=":1262646516_0_1" index="1" speed="18.06" length="0.99" shape="1360.13,669.55 1360.07,669.68 1360.01,669.76 1359.95,669.84 1359.84,669.94"/>
    </edge>
    <edge id=":1262646517_0" function="internal">
        <lane id=":1262646517_0_0" index="0" speed="18.06" length="5.47" shape="1319.43,671.68 1318.37,670.31 1317.74,669.29 1317.23,668.20 1316.53,666.60"/>
        <lane id=":1262646517_0_1" index="1" speed="18.06" length="5.47" shape="1321.91,669.65 1321.00,668.47 1320.47,667.60 1320.04,666.66 1319.44,665.28"/>
    </edge>
    <edge id=":1262646517_2" function="internal">
        <lane id=":1262646517_2_0" index="0" speed="9.54" length="4.58" shape="1317.17,670.25 1317.24,669.13 1317.19,668.36 1316.97,667.62 1316.53,666.60"/>
        <lane id=":1262646517_2_1" index="1" speed="11.32" length="4.58" shape="1320.36,670.49 1320.46,668.90 1320.39,667.80 1320.07,666.74 1319.44,665.28"/>
    </edge>
    <edge id=":1262646518_0" function="internal">
        <lane id=":1262646518_0_0" index="0" speed="18.06" length="0.84" shape="1317.06,643.86 1317.19,643.52 1317.30,643.28 1317.43,643.06 1317.65,642.76"/>
        <lane id=":1262646518_0_1" index="1" speed="18.06" length="0.84" shape="1320.04,645.00 1320.09,644.89 1320.13,644.81 1320.17,644.74 1320.24,644.64"/>
    </edge>
    <edge id=":1262646519_0" function="internal">
        <lane id=":1262646519_0_0" index="0" speed="18.06" length="0.84" shape="1342.36,682.59 1341.99,682.65 1341.73,682.67 1341.48,682.67 1341.11,682.63"/>
        <lane id=":1262646519_0_1" index="1" speed="18.06" length="0.84" shape="1341.84,679.44 1341.72,679.45 1341.64,679.46 1341.55,679.46 1341.43,679.45"/>
    </edge>
    <edge id=":1262646520_0" function="internal">
        <lane id=":1262646520_0_0" index="0" speed="18.06" length="0.73" shape="1354.32,632.87 1354.61,633.01 1354.81,633.12 1354.99,633.24 1355.25,633.44"/>
        <lane id=":1262646520_0_1" index="1" speed="18.06" length="0.73" shape="1352.99,635.78 1353.08,635.83 1353.15,635.86 1353.21,635.91 1353.30,635.97"/>
    </edge>
    <edge id=":1262646521_0" function="internal">
        <lane id=":1262646521_0_0" index="0" speed="18.06" length="0.84" shape="1335.38,682.06 1335.01,682.02 1334.76,681.97 1334.52,681.90 1334.17,681.77"/>
        <lane id=":1262646521_0_1" index="1" speed="18.06" length="0.84" shape="1335.70,678.87 1335.58,678.86 1335.50,678.85 1335.42,678.82 1335.30,678.78"/>
    </edge>
    <edge id=":1262646522_0" function="internal">
        <lane id=":1262646522_0_0" index="0" speed="18.06" length="3.57" shape="1350.75,680.55 1350.01,680.93 1349.52,681.21 1349.04,681.52 1348.36,681.98"/>
        <lane id=":1262646522_0_1" index="1" speed="18.06" length="3.57" shape="1350.75,680.55 1346.56,679.33"/>
    </edge>
    <edge id=":1262646522_2" function="internal">
        <lane id=":1262646522_2_0" index="0" speed="18.06" length="3.96" shape="1350.75,680.55 1349.56,681.13 1348.72,681.47 1347.84,681.69 1346.55,681.91"/>
        <lane id=":1262646522_2_1" index="1" speed="18.06" length="3.96" shape="1349.31,677.69 1348.39,678.14 1347.73,678.41 1347.05,678.58 1346.03,678.75"/>
    </edge>
    <edge id=":1262646523_0" function="internal">
        <lane id=":1262646523_0_0" index="0" speed="18.06" length="3.60" shape="1329.19,632.32 1329.89,631.85 1330.35,631.51 1330.80,631.15 1331.45,630.62"/>
        <lane id=":1262646523_0_1" index="1" speed="18.06" length="3.60" shape="1329.19,632.32 1333.49,633.09"/>
    </edge>
    <edge id=":1262646523_2" function="internal">
        <lane id=":1262646523_2_0" index="0" speed="18.06" length="4.08" shape="1329.19,632.32 1330.33,631.57 1331.16,631.13 1332.05,630.81 1333.38,630.46"/>
        <lane id=":1262646523_2_1" index="1" speed="15.87" length="4.08" shape="1330.96,634.98 1331.84,634.41 1332.47,634.07 1333.15,633.83 1334.16,633.56"/>
    </edge>
    <edge id=":1262646524_0" function="internal">
        <lane id=":1262646524_0_0" index="0" speed="18.06" length="0.84" shape="1314.18,657.39 1314.12,657.02 1314.10,656.76 1314.10,656.50 1314.14,656.13"/>
        <lane id=":1262646524_0_1" index="1" speed="18.06" length="0.84" shape="1317.34,656.87 1317.32,656.75 1317.31,656.67 1317.31,656.58 1317.32,656.45"/>
    </edge>
    <edge id=":1262646525_0" function="internal">
        <lane id=":1262646525_0_0" index="0" speed="18.06" length="3.87" shape="1314.72,650.44 1314.92,649.20 1315.20,648.38 1315.58,647.58 1316.08,646.41"/>
        <lane id=":1262646525_0_1" index="1" speed="18.06" length="3.87" shape="1317.90,650.76 1318.07,649.77 1318.32,649.12 1318.66,648.49 1319.07,647.55"/>
    </edge>
    <edge id=":1262646526_0" function="internal">
        <lane id=":1262646526_0_0" index="0" speed="18.06" length="3.85" shape="1331.60,680.80 1330.40,680.40 1329.55,680.16 1328.75,679.83 1327.70,679.16"/>
        <lane id=":1262646526_0_1" index="1" speed="18.06" length="3.85" shape="1332.73,677.81 1331.76,677.50 1331.07,677.33 1330.41,677.09 1329.56,676.55"/>
    </edge>
    <edge id=":1262646527_0" function="internal">
        <lane id=":1262646527_0_0" index="0" speed="18.06" length="3.13" shape="1340.41,629.40 1341.45,629.34 1342.17,629.28 1342.88,629.29 1343.89,629.45"/>
        <lane id=":1262646527_0_1" index="1" speed="18.06" length="3.13" shape="1340.49,632.60 1341.31,632.55 1341.87,632.47 1342.43,632.46 1343.24,632.58"/>
    </edge>
    <edge id=":1563649693_0" function="internal">
        <lane id=":1563649693_0_0" index="0" speed="36.11" length="0.29" shape="195.09,358.82 194.84,358.63"/>
        <lane id=":1563649693_0_1" index="1" speed="36.11" length="0.29" shape="196.97,356.23 196.75,356.07"/>
    </edge>
    <edge id=":1563649736_0" function="internal">
        <lane id=":1563649736_0_0" index="0" speed="36.11" length="0.28" shape="397.15,505.15 396.96,505.00"/>
        <lane id=":1563649736_0_1" index="1" speed="36.11" length="0.28" shape="399.08,502.59 398.83,502.41"/>
    </edge>
    <edge id=":1563649778_0" function="internal">
        <lane id=":1563649778_0_0" index="0" speed="36.11" length="3.18" shape="579.41,642.94 576.80,640.97"/>
        <lane id=":1563649778_0_1" index="1" speed="36.11" length="3.18" shape="581.19,640.28 578.73,638.42"/>
    </edge>
    <edge id=":1563649903_0" function="internal">
        <lane id=":1563649903_0_0" index="0" speed="36.11" length="3.65" shape="1002.89,913.12 1001.85,912.56 1001.12,912.21 1000.43,911.79 999.53,911.06"/>
        <lane id=":1563649903_0_1" index="1" speed="36.11" length="3.65" shape="1004.50,910.35 1003.62,909.89 1003.00,909.61 1002.41,909.27 1001.65,908.66"/>
    </edge>
    <edge id=":1563649988_0" function="internal">
        <lane id=":1563649988_0_0" index="0" speed="36.11" length="3.16" shape="1224.44,1041.55 1221.55,1040.06"/>
        <lane id=":1563649988_0_1" index="1" speed="36.11" length="3.16" shape="1225.90,1038.70 1223.16,1037.29"/>
    </edge>
    <edge id=":1563650059_0" function="internal">
        <lane id=":1563650059_0_0" index="0" speed="36.11" length="3.28" shape="1420.02,1141.67 1416.86,1140.37"/>
        <lane id=":1563650059_0_1" index="1" speed="36.11" length="3.28" shape="1421.23,1138.71 1418.33,1137.52"/>
    </edge>
    <edge id=":1656047476_0" function="internal">
        <lane id=":1656047476_0_0" index="0" speed="18.06" length="3.09" shape="672.18,666.28 673.21,666.08 673.92,665.92 674.63,665.85 675.66,665.92"/>
        <lane id=":1656047476_0_1" index="1" speed="18.06" length="3.09" shape="672.67,669.44 673.44,669.28 673.97,669.13 674.50,669.06 675.28,669.10"/>
    </edge>
    <edge id=":1656047623_0" function="internal">
        <lane id=":1656047623_0_0" index="0" speed="18.06" length="4.12" shape="674.26,727.50 672.88,727.60 671.92,727.71 670.97,727.67 669.65,727.34"/>
        <lane id=":1656047623_0_1" index="1" speed="15.91" length="4.12" shape="674.19,724.30 673.13,724.40 672.39,724.52 671.67,724.54 670.65,724.30"/>
    </edge>
    <edge id=":1656047782_0" function="internal">
        <lane id=":1656047782_0_0" index="0" speed="18.06" length="3.00" shape="661.56,725.13 661.01,724.55 660.63,724.16 660.21,723.81 659.57,723.34"/>
        <lane id=":1656047782_0_1" index="1" speed="18.06" length="3.00" shape="663.87,722.92 663.20,722.21 662.72,721.73 662.21,721.30 661.42,720.72"/>
    </edge>
    <edge id=":1656047782_2" function="internal">
        <lane id=":1656047782_2_0" index="0" speed="18.06" length="3.94" shape="663.49,725.31 662.25,724.89 661.42,724.54 660.65,724.08 659.57,723.34"/>
        <lane id=":1656047782_2_1" index="1" speed="18.06" length="3.94" shape="664.49,722.27 663.52,721.94 662.87,721.67 662.26,721.31 661.42,720.72"/>
    </edge>
    <edge id=":1656047790_0" function="internal">
        <lane id=":1656047790_0_0" index="0" speed="18.75" length="3.00" shape="706.14,704.55 705.69,705.22 705.39,705.68 705.14,706.16 704.81,706.89"/>
        <lane id=":1656047790_0_1" index="1" speed="18.75" length="3.00" shape="703.48,702.77 702.94,703.58 702.58,704.15 702.27,704.74 701.87,705.63"/>
    </edge>
    <edge id=":1656047790_2" function="internal">
        <lane id=":1656047790_2_0" index="0" speed="18.06" length="3.99" shape="705.91,702.58 705.78,703.90 705.61,704.80 705.32,705.67 704.81,706.89"/>
        <lane id=":1656047790_2_1" index="1" speed="18.06" length="3.99" shape="702.73,702.28 702.62,703.30 702.49,704.00 702.27,704.68 701.87,705.63"/>
    </edge>
    <edge id=":1656047825_0" function="internal">
        <lane id=":1656047825_0_0" index="0" speed="18.06" length="0.75" shape="649.29,680.27 649.44,679.97 649.56,679.77 649.70,679.59 649.91,679.34"/>
        <lane id=":1656047825_0_1" index="1" speed="18.06" length="0.75" shape="652.14,681.72 652.20,681.62 652.23,681.55 652.28,681.49 652.35,681.40"/>
    </edge>
    <edge id=":1656047839_0" function="internal">
        <lane id=":1656047839_0_0" index="0" speed="11.75" length="1.05" shape="698.34,675.88 698.70,676.18 698.93,676.40 699.13,676.65 699.38,677.05"/>
        <lane id=":1656047839_0_1" index="1" speed="18.06" length="1.05" shape="696.32,678.36 696.44,678.46 696.52,678.53 696.58,678.62 696.67,678.75"/>
    </edge>
    <edge id=":1656047898_0" function="internal">
        <lane id=":1656047898_0_0" index="0" speed="18.06" length="0.60" shape="702.36,712.58 702.25,712.82 702.17,712.98 702.08,713.14 701.93,713.36"/>
        <lane id=":1656047898_0_1" index="1" speed="18.06" length="0.60" shape="699.42,711.31 699.38,711.39 699.36,711.45 699.32,711.50 699.28,711.57"/>
    </edge>
    <edge id=":1656047964_0" function="internal">
        <lane id=":1656047964_0_0" index="0" speed="18.06" length="3.95" shape="646.52,707.42 645.98,706.22 645.58,705.40 645.29,704.56 645.10,703.27"/>
        <lane id=":1656047964_0_1" index="1" speed="18.06" length="3.95" shape="649.49,706.25 649.06,705.30 648.71,704.67 648.45,704.01 648.29,703.00"/>
    </edge>
    <edge id=":1656048071_0" function="internal">
        <lane id=":1656048071_0_0" index="0" speed="18.06" length="3.95" shape="648.89,712.89 648.15,711.83 647.79,711.01 647.53,710.14 647.10,708.90"/>
        <lane id=":1656048071_0_1" index="1" speed="18.06" length="3.95" shape="651.41,710.91 650.84,710.07 650.58,709.41 650.40,708.71 650.08,707.72"/>
    </edge>
    <edge id=":1656048104_0" function="internal">
        <lane id=":1656048104_0_0" index="0" speed="18.06" length="3.95" shape="657.03,721.54 655.93,720.83 655.14,720.37 654.44,719.83 653.58,718.86"/>
        <lane id=":1656048104_0_1" index="1" speed="18.06" length="3.95" shape="658.88,718.93 658.00,718.38 657.36,718.04 656.78,717.63 656.10,716.88"/>
    </edge>
    <edge id=":1656048148_0" function="internal">
        <lane id=":1656048148_0_0" index="0" speed="18.06" length="0.61" shape="676.38,760.10 676.28,759.85 676.22,759.67 676.17,759.49 676.11,759.22"/>
        <lane id=":1656048148_0_1" index="1" speed="18.06" length="0.61" shape="679.34,758.86 679.30,758.78 679.28,758.72 679.27,758.66 679.25,758.57"/>
    </edge>
    <edge id=":1656048150_0" function="internal">
        <lane id=":1656048150_0_0" index="0" speed="18.06" length="3.76" shape="651.92,676.96 652.68,675.99 653.18,675.30 653.74,674.68 654.68,673.91"/>
        <lane id=":1656048150_0_1" index="1" speed="18.06" length="3.76" shape="654.36,679.03 654.98,678.23 655.37,677.65 655.81,677.13 656.57,676.49"/>
    </edge>
    <edge id=":1656048172_0" function="internal">
        <lane id=":1656048172_0_0" index="0" speed="18.75" length="12.86" shape="688.00,668.73 691.57,669.86 694.16,670.03 696.84,669.77 700.67,669.63"/>
    </edge>
    <edge id=":1656048172_1" function="internal">
        <lane id=":1656048172_1_0" index="0" speed="18.75" length="13.41" shape="688.00,668.73 691.63,670.40 694.12,671.66 696.70,672.48 700.60,672.83"/>
    </edge>
    <edge id=":1656048172_2" function="internal">
        <lane id=":1656048172_2_0" index="0" speed="18.06" length="12.04" shape="688.00,668.73 691.34,670.26 693.45,671.65 695.38,673.33 698.19,675.75"/>
        <lane id=":1656048172_2_1" index="1" speed="18.06" length="12.04" shape="686.80,671.69 689.90,673.13 691.85,674.44 693.64,676.03 696.24,678.29"/>
    </edge>
    <edge id=":1656048201_0" function="internal">
        <lane id=":1656048201_0_0" index="0" speed="18.06" length="8.50" shape="696.47,721.44 695.23,723.48 694.60,724.99 694.11,726.58 693.31,728.84"/>
        <lane id=":1656048201_0_1" index="1" speed="18.06" length="8.50" shape="696.47,721.44 694.70,723.38 693.08,724.41 691.62,725.52 690.32,727.71"/>
    </edge>
    <edge id=":1656048201_2" function="internal">
        <lane id=":1656048201_2_0" index="0" speed="11.52" length="9.90" shape="696.47,721.44 694.45,723.85 692.51,724.95 690.17,725.46 686.92,726.10"/>
        <lane id=":1656048201_2_1" index="1" speed="10.27" length="9.90" shape="693.82,719.65 692.20,721.49 690.63,722.25 688.74,722.54 686.16,722.99"/>
    </edge>
    <edge id=":1656048215_0" function="internal">
        <lane id=":1656048215_0_0" index="0" speed="18.06" length="2.98" shape="659.61,670.28 660.44,669.73 661.05,669.44 661.70,669.21 662.63,668.86"/>
        <lane id=":1656048215_0_1" index="1" speed="18.06" length="2.98" shape="661.51,672.86 662.15,672.44 662.64,672.23 663.16,672.07 663.88,671.80"/>
    </edge>
    <edge id=":1686003767_0" function="internal">
        <lane id=":1686003767_0_0" index="0" speed="18.06" length="0.38" shape="1479.09,893.08 1478.90,893.40"/>
    </edge>
    <edge id=":1686003767_1" function="internal">
        <lane id=":1686003767_1_0" index="0" speed="18.06" length="0.13" shape="1476.18,891.72 1476.24,891.62"/>
    </edge>
    <edge id=":1741873961_0" function="internal">
        <lane id=":1741873961_0_0" index="0" speed="36.11" length="0.25" shape="592.19,622.44 592.30,622.51"/>
        <lane id=":1741873961_0_1" index="1" speed="36.11" length="0.25" shape="590.28,625.01 590.59,625.22"/>
    </edge>
    <edge id=":1741873962_0" function="internal">
        <lane id=":1741873962_0_0" index="0" speed="36.11" length="0.23" shape="1235.67,1013.88 1235.82,1013.96"/>
        <lane id=":1741873962_0_1" index="1" speed="36.11" length="0.23" shape="1234.06,1016.64 1234.31,1016.79"/>
    </edge>
    <edge id=":1741873972_0" function="internal">
        <lane id=":1741873972_0_0" index="0" speed="36.11" length="0.25" shape="1427.23,1116.16 1427.35,1116.21"/>
        <lane id=":1741873972_0_1" index="1" speed="36.11" length="0.25" shape="1425.73,1118.98 1426.07,1119.15"/>
    </edge>
    <edge id=":1741873986_0" function="internal">
        <lane id=":1741873986_0_0" index="0" speed="36.11" length="3.30" shape="746.74,719.57 747.59,720.13 748.15,720.56 748.68,721.01 749.49,721.65"/>
        <lane id=":1741873986_0_1" index="1" speed="36.11" length="3.30" shape="745.03,722.28 745.81,722.79 746.32,723.19 746.80,723.60 747.54,724.19"/>
    </edge>
    <edge id=":1741873997_0" function="internal">
        <lane id=":1741873997_0_0" index="0" speed="36.11" length="0.30" shape="208.87,338.13 209.12,338.31"/>
        <lane id=":1741873997_0_1" index="1" speed="36.11" length="0.30" shape="206.98,340.71 207.22,340.88"/>
    </edge>
    <edge id=":1741874003_0" function="internal">
        <lane id=":1741874003_0_0" index="0" speed="14.44" length="3.54" shape="778.06,743.62 778.89,744.25 779.51,744.63 780.17,744.91 781.17,745.23"/>
    </edge>
    <edge id=":1741874003_1" function="internal">
        <lane id=":1741874003_1_0" index="0" speed="17.33" length="5.12" shape="778.06,743.62 780.19,748.28"/>
    </edge>
    <edge id=":1741874003_2" function="internal">
        <lane id=":1741874003_2_0" index="0" speed="36.11" length="4.19" shape="778.06,743.62 778.91,744.28 779.49,744.73 780.10,745.15 781.01,745.72"/>
        <lane id=":1741874003_2_1" index="1" speed="36.11" length="4.19" shape="776.11,746.16 777.22,747.02 778.00,747.59 778.81,748.12 780.01,748.85"/>
    </edge>
    <edge id=":1741874013_0" function="internal">
        <lane id=":1741874013_0_0" index="0" speed="36.11" length="0.30" shape="408.70,485.92 408.95,486.10"/>
        <lane id=":1741874013_0_1" index="1" speed="36.11" length="0.30" shape="406.80,488.50 407.04,488.67"/>
    </edge>
    <edge id=":1741874017_0" function="internal">
        <lane id=":1741874017_0_0" index="0" speed="36.11" length="3.19" shape="1015.91,885.99 1018.75,887.64"/>
        <lane id=":1741874017_0_1" index="1" speed="36.11" length="3.19" shape="1014.47,888.85 1017.15,890.41"/>
    </edge>
    <edge id=":1741885688_0" function="internal">
        <lane id=":1741885688_0_0" index="0" speed="19.44" length="1.24" shape="882.86,783.08 883.04,783.06 883.16,783.04 883.28,783.00 883.45,782.92"/>
        <lane id=":1741885688_0_1" index="1" speed="9.32" length="1.24" shape="883.08,786.27 883.63,786.22 884.00,786.16 884.36,786.03 884.86,785.79"/>
    </edge>
    <edge id=":1741885689_0" function="internal">
        <lane id=":1741885689_0_0" index="0" speed="19.44" length="0.70" shape="910.34,717.54 910.30,717.44 910.26,717.38 910.23,717.32 910.17,717.23"/>
        <lane id=":1741885689_0_1" index="1" speed="19.44" length="0.70" shape="913.29,716.30 913.17,716.02 913.07,715.83 912.96,715.65 912.79,715.39"/>
    </edge>
    <edge id=":1741885690_0" function="internal">
        <lane id=":1741885690_0_0" index="0" speed="19.44" length="0.40" shape="873.56,691.61 873.50,691.59 873.46,691.57 873.43,691.56 873.37,691.54"/>
        <lane id=":1741885690_0_1" index="1" speed="19.44" length="0.40" shape="874.85,688.68 874.69,688.61 874.58,688.57 874.46,688.53 874.29,688.48"/>
    </edge>
    <edge id=":1741885691_0" function="internal">
        <lane id=":1741885691_0_0" index="0" speed="19.44" length="1.12" shape="915.16,751.35 915.22,751.20 915.26,751.09 915.27,750.98 915.28,750.81"/>
        <lane id=":1741885691_0_1" index="1" speed="10.50" length="1.12" shape="918.11,752.59 918.30,752.13 918.40,751.80 918.45,751.46 918.48,750.97"/>
    </edge>
    <edge id=":1741885692_0" function="internal">
        <lane id=":1741885692_0_0" index="0" speed="36.11" length="3.25" shape="730.29,743.89 727.47,742.03"/>
        <lane id=":1741885692_0_1" index="1" speed="36.11" length="3.25" shape="731.85,741.10 729.25,739.37"/>
    </edge>
    <edge id=":1741885693_0" function="internal">
        <lane id=":1741885693_0_0" index="0" speed="19.44" length="0.93" shape="791.44,666.85 791.31,666.81 791.21,666.79 791.12,666.78 790.98,666.78"/>
        <lane id=":1741885693_0_1" index="1" speed="16.81" length="0.93" shape="792.36,663.79 791.96,663.67 791.69,663.61 791.40,663.59 790.99,663.58"/>
    </edge>
    <edge id=":1741885695_0" function="internal">
        <lane id=":1741885695_0_0" index="0" speed="19.44" length="0.23" shape="727.65,682.29 727.54,682.34"/>
        <lane id=":1741885695_0_1" index="1" speed="19.44" length="0.23" shape="726.33,679.38 726.02,679.53"/>
    </edge>
    <edge id=":1741885696_0" function="internal">
        <lane id=":1741885696_0_0" index="0" speed="19.44" length="0.31" shape="778.11,666.74 778.07,666.74 778.04,666.74 778.01,666.74 777.96,666.75"/>
        <lane id=":1741885696_0_1" index="1" speed="19.44" length="0.31" shape="778.12,663.54 777.99,663.54 777.89,663.54 777.80,663.55 777.66,663.56"/>
    </edge>
    <edge id=":1741885698_0" function="internal">
        <lane id=":1741885698_0_0" index="0" speed="19.44" length="0.97" shape="853.59,782.67 853.72,782.73 853.81,782.76 853.91,782.78 854.05,782.79"/>
        <lane id=":1741885698_0_1" index="1" speed="14.05" length="0.97" shape="852.36,785.63 852.76,785.79 853.05,785.88 853.34,785.93 853.77,785.98"/>
    </edge>
    <edge id=":1741885700_0" function="internal">
        <lane id=":1741885700_0_0" index="0" speed="19.44" length="0.67" shape="906.63,766.98 906.70,766.91 906.75,766.86 906.79,766.81 906.84,766.72"/>
        <lane id=":1741885700_0_1" index="1" speed="19.44" length="0.67" shape="908.82,769.30 909.04,769.10 909.18,768.95 909.30,768.79 909.47,768.55"/>
    </edge>
    <edge id=":1741892082_0" function="internal">
        <lane id=":1741892082_0_0" index="0" speed="19.44" length="3.82" shape="756.86,651.46 758.06,651.13 758.90,651.04 759.77,651.05 761.02,651.01"/>
        <lane id=":1741892082_0_1" index="1" speed="19.44" length="3.82" shape="757.87,654.49 758.84,654.24 759.53,654.19 760.23,654.22 761.25,654.20"/>
    </edge>
    <edge id=":1741892084_0" function="internal">
        <lane id=":1741892084_0_0" index="0" speed="19.44" length="1.40" shape="708.57,669.80 708.78,669.80 708.92,669.79 709.06,669.74 709.25,669.66"/>
        <lane id=":1741892084_0_1" index="1" speed="8.43" length="1.40" shape="708.50,673.00 709.12,673.00 709.55,672.96 709.96,672.84 710.54,672.59"/>
    </edge>
    <edge id=":1741892086_0" function="internal">
        <lane id=":1741892086_0_0" index="0" speed="19.44" length="3.69" shape="781.76,649.54 782.95,649.51 783.76,649.61 784.57,649.78 785.75,650.00"/>
        <lane id=":1741892086_0_1" index="1" speed="19.44" length="3.69" shape="781.99,652.73 782.98,652.71 783.65,652.81 784.32,652.98 785.30,653.16"/>
    </edge>
    <edge id=":1741892089_0" function="internal">
        <lane id=":1741892089_0_0" index="0" speed="19.44" length="0.99" shape="851.05,875.54 851.15,875.43 851.22,875.35 851.27,875.27 851.33,875.14"/>
        <lane id=":1741892089_0_1" index="1" speed="13.44" length="0.99" shape="853.38,877.74 853.68,877.42 853.87,877.18 854.02,876.92 854.21,876.53"/>
    </edge>
    <edge id=":1741892091_0" function="internal">
        <lane id=":1741892091_0_0" index="0" speed="15.93" length="0.94" shape="927.13,709.30 927.37,709.64 927.51,709.89 927.62,710.16 927.76,710.55"/>
        <lane id=":1741892091_0_1" index="1" speed="19.44" length="0.94" shape="924.51,711.13 924.59,711.24 924.63,711.33 924.67,711.42 924.72,711.55"/>
    </edge>
    <edge id=":1741892093_0" function="internal">
        <lane id=":1741892093_0_0" index="0" speed="19.44" length="1.05" shape="894.39,885.13 894.24,885.18 894.14,885.22 894.05,885.28 893.93,885.37"/>
        <lane id=":1741892093_0_1" index="1" speed="11.72" length="1.05" shape="893.38,882.09 892.94,882.24 892.64,882.37 892.37,882.54 891.99,882.82"/>
    </edge>
    <edge id=":1741892095_0" function="internal">
        <lane id=":1741892095_0_0" index="0" speed="19.44" length="1.25" shape="858.17,856.06 858.21,855.88 858.23,855.75 858.22,855.63 858.20,855.44"/>
        <lane id=":1741892095_0_1" index="1" speed="9.23" length="1.25" shape="861.29,856.80 861.41,856.26 861.46,855.88 861.44,855.49 861.36,854.94"/>
    </edge>
    <edge id=":1741892097_0" function="internal">
        <lane id=":1741892097_0_0" index="0" speed="8.59" length="1.37" shape="911.44,689.95 911.98,690.21 912.34,690.43 912.65,690.71 913.05,691.17"/>
        <lane id=":1741892097_0_1" index="1" speed="19.44" length="1.37" shape="910.08,692.85 910.27,692.94 910.39,693.01 910.49,693.10 910.62,693.25"/>
    </edge>