<?xml version="1.0" encoding="UTF-8"?>

<!-- generated on Tue Jul 14 02:12:21 2020 by Eclipse SUMO netconvert Version 1.2.0
<configuration xmlns:xsi="http://www.w3.org/2001/XMLSchema-instance" xsi:noNamespaceSchemaLocation="http://sumo.dlr.de/xsd/netconvertConfiguration.xsd">

    <input>
        <node-files value="/home/vsimrti/scenarios/ids/sumo/gualtar16/gualtar16.nod.xml"/>
        <edge-files value="/home/vsimrti/scenarios/ids/sumo/gualtar16/gualtar16.edg.xml"/>
        <connection-files value="/home/vsimrti/scenarios/ids/sumo/gualtar16/gualtar16.con.xml"/>
    </input>

    <output>
        <output-file value="/home/vsimrti/scenarios/ids/sumo/gualtar16/gualtar16.net.xml"/>
    </output>

</configuration>
-->

<net version="1.1" junctionCornerDetail="5" limitTurnSpeed="5.50" xmlns:xsi="http://www.w3.org/2001/XMLSchema-instance" xsi:noNamespaceSchemaLocation="http://sumo.dlr.de/xsd/net_file.xsd">

    <location netOffset="-595349.58,-4263998.98" convBoundary="0.00,0.00,1802.91,4202.33" origBoundary="595349.58,4263998.98,597152.48,4268201.30" projParameter="!"/>

    <edge id=":1258708741_0" function="internal">
        <lane id=":1258708741_0_0" index="0" speed="25.00" length="8.32" shape="1653.99,1823.89 1653.33,1821.51 1652.12,1820.10 1650.87,1818.69 1650.11,1816.33"/>
        <lane id=":1258708741_0_1" index="1" speed="25.00" length="8.32" shape="1653.99,1823.89 1653.29,1815.98"/>
    </edge>
    <edge id=":1258708741_2" function="internal">
        <lane id=":1258708741_2_0" index="0" speed="25.00" length="9.10" shape="1660.08,1815.25 1659.60,1817.82 1658.54,1819.47 1657.52,1821.11 1657.18,1823.68"/>
    </edge>
    <edge id=":1602367978_0" function="internal">
        <lane id=":1602367978_0_0" index="0" speed="13.89" length="0.90" shape="968.36,2477.32 968.52,2477.69 968.61,2477.95 968.67,2478.22 968.72,2478.62"/>
        <lane id=":1602367978_0_1" index="1" speed="13.89" length="0.90" shape="965.43,2478.61 965.48,2478.73 965.51,2478.82 965.53,2478.91 965.55,2479.04"/>
    </edge>
    <edge id=":1602367987_0" function="internal">
        <lane id=":1602367987_0_0" index="0" speed="19.45" length="3.54" shape="1683.30,2553.95 1683.83,2553.34 1684.16,2552.89 1684.47,2552.43 1684.90,2551.73"/>
        <lane id=":1602367987_0_1" index="1" speed="19.45" length="3.54" shape="1683.30,2553.95 1687.61,2553.44"/>
    </edge>
    <edge id=":1602367987_2" function="internal">
        <lane id=":1602367987_2_0" index="0" speed="13.89" length="4.24" shape="1683.30,2553.95 1684.26,2552.88 1684.99,2552.21 1685.83,2551.68 1687.12,2551.02"/>
        <lane id=":1602367987_2_1" index="1" speed="12.50" length="4.24" shape="1685.70,2556.06 1686.42,2555.27 1686.96,2554.77 1687.58,2554.38 1688.53,2553.89"/>
    </edge>
    <edge id=":1602367989_0" function="internal">
        <lane id=":1602367989_0_0" index="0" speed="25.00" length="20.10" shape="1699.51,2504.19 1700.01,2507.98 1701.06,2512.18 1702.64,2517.22 1704.73,2523.55"/>
    </edge>
    <edge id=":1602367989_1" function="internal">
        <lane id=":1602367989_1_0" index="0" speed="3.65" length="2.49" shape="1699.51,2504.19 1698.78,2505.43 1698.01,2505.88 1697.87,2505.82"/>
    </edge>
    <edge id=":1602367989_4" function="internal">
        <lane id=":1602367989_4_0" index="0" speed="3.65" length="2.19" shape="1697.87,2505.82 1697.18,2505.53 1696.31,2504.38"/>
    </edge>
    <edge id=":1602367989_2" function="internal">
        <lane id=":1602367989_2_0" index="0" speed="25.00" length="20.50" shape="1693.71,2524.69 1694.62,2518.02 1695.54,2512.68 1696.19,2508.26 1696.31,2504.38"/>
    </edge>
    <edge id=":1602367989_3" function="internal">
        <lane id=":1602367989_3_0" index="0" speed="5.67" length="12.36" shape="1696.89,2525.04 1697.66,2520.77 1698.72,2519.27 1700.06,2520.52 1701.69,2524.54"/>
    </edge>
    <edge id=":1602368044_0" function="internal">
        <lane id=":1602368044_0_0" index="0" speed="10.58" length="10.05" shape="1672.68,2559.24 1675.34,2559.06 1677.29,2558.98 1678.98,2558.41 1680.85,2556.75"/>
        <lane id=":1602368044_0_1" index="1" speed="11.81" length="10.05" shape="1673.10,2562.41 1676.44,2562.12 1678.85,2561.88 1680.92,2561.02 1683.25,2558.86"/>
    </edge>
    <edge id=":1602368044_2" function="internal">
        <lane id=":1602368044_2_0" index="0" speed="13.89" length="9.77" shape="1675.84,2565.73 1676.84,2562.81 1677.69,2560.86 1678.87,2559.10 1680.85,2556.75"/>
        <lane id=":1602368044_2_1" index="1" speed="13.89" length="9.77" shape="1678.87,2566.76 1679.75,2564.20 1680.49,2562.48 1681.51,2560.92 1683.25,2558.86"/>
    </edge>
    <edge id=":1602368049_0" function="internal">
        <lane id=":1602368049_0_0" index="0" speed="19.45" length="11.92" shape="1692.22,2606.92 1690.66,2603.90 1689.73,2601.71 1688.54,2599.72 1686.22,2597.34"/>
        <lane id=":1602368049_0_1" index="1" speed="19.45" length="11.92" shape="1694.97,2605.27 1693.25,2602.00 1692.20,2599.64 1690.87,2597.51 1688.32,2594.93"/>
    </edge>
    <edge id=":1602368049_2" function="internal">
        <lane id=":1602368049_2_0" index="0" speed="13.89" length="11.80" shape="1697.50,2602.12 1693.94,2601.12 1691.41,2600.51 1689.11,2599.51 1686.22,2597.34"/>
        <lane id=":1602368049_2_1" index="1" speed="13.89" length="11.80" shape="1698.52,2599.09 1695.31,2598.21 1693.02,2597.71 1690.93,2596.86 1688.32,2594.93"/>
    </edge>
    <edge id=":1602368053_0" function="internal">
        <lane id=":1602368053_0_0" index="0" speed="13.89" length="3.89" shape="952.00,2460.16 953.23,2460.56 954.08,2460.81 954.89,2461.15 955.96,2461.84"/>
        <lane id=":1602368053_0_1" index="1" speed="13.89" length="3.89" shape="950.87,2463.15 951.85,2463.46 952.55,2463.63 953.20,2463.88 954.06,2464.42"/>
    </edge>
    <edge id=":1602368066_0" function="internal">
        <lane id=":1602368066_0_0" index="0" speed="13.89" length="4.02" shape="960.84,2506.00 959.75,2506.78 958.99,2507.31 958.21,2507.79 957.03,2508.44"/>
        <lane id=":1602368066_0_1" index="1" speed="13.89" length="4.02" shape="958.49,2503.75 957.64,2504.35 957.05,2504.75 956.43,2505.12 955.51,2505.62"/>
    </edge>
    <edge id=":1602368066_2" function="internal">
        <lane id=":1602368066_2_0" index="0" speed="13.89" length="3.98" shape="960.57,2505.74 959.64,2506.69 958.96,2507.30 958.20,2507.80 957.03,2508.44"/>
        <lane id=":1602368066_2_1" index="1" speed="13.89" length="3.98" shape="958.26,2503.53 957.54,2504.26 957.01,2504.73 956.42,2505.12 955.51,2505.62"/>
    </edge>
    <edge id=":1602368068_0" function="internal">
        <lane id=":1602368068_0_0" index="0" speed="13.89" length="3.85" shape="914.47,2485.81 914.40,2484.56 914.49,2483.70 914.69,2482.84 914.92,2481.60"/>
        <lane id=":1602368068_0_1" index="1" speed="13.89" length="3.85" shape="917.65,2485.44 917.60,2484.43 917.70,2483.75 917.89,2483.06 918.09,2482.06"/>
    </edge>
    <edge id=":1602368104_0" function="internal">
        <lane id=":1602368104_0_0" index="0" speed="19.45" length="12.62" shape="1711.24,2541.64 1713.08,2544.76 1714.22,2547.02 1715.59,2549.07 1718.12,2551.59"/>
        <lane id=":1602368104_0_1" index="1" speed="19.45" length="12.62" shape="1708.57,2543.41 1710.56,2546.75 1711.81,2549.14 1713.30,2551.32 1716.02,2554.01"/>
    </edge>
    <edge id=":1602368104_2" function="internal">
        <lane id=":1602368104_2_0" index="0" speed="13.89" length="9.50" shape="1711.14,2548.26 1713.37,2548.95 1714.91,2549.44 1716.31,2550.17 1718.12,2551.59"/>
        <lane id=":1602368104_2_1" index="1" speed="13.89" length="9.50" shape="1705.81,2549.85 1709.03,2550.73 1711.32,2551.23 1713.40,2552.08 1716.02,2554.01"/>
    </edge>
    <edge id=":1602368123_0" function="internal">
        <lane id=":1602368123_0_0" index="0" speed="13.89" length="4.09" shape="954.38,2509.87 953.20,2510.58 952.40,2511.11 951.56,2511.50 950.24,2511.81"/>
        <lane id=":1602368123_0_1" index="1" speed="13.89" length="4.09" shape="952.86,2507.06 951.96,2507.62 951.36,2508.06 950.73,2508.40 949.72,2508.65"/>
    </edge>
    <edge id=":1602368140_0" function="internal">
        <lane id=":1602368140_0_0" index="0" speed="13.89" length="0.78" shape="925.31,2463.71 925.57,2463.48 925.76,2463.33 925.96,2463.21 926.27,2463.04"/>
        <lane id=":1602368140_0_1" index="1" speed="13.89" length="0.78" shape="927.46,2466.09 927.54,2466.01 927.61,2465.96 927.67,2465.92 927.78,2465.87"/>
    </edge>
    <edge id=":1602368161_0" function="internal">
        <lane id=":1602368161_0_0" index="0" speed="13.89" length="4.08" shape="928.36,2509.13 927.13,2508.54 926.25,2508.16 925.46,2507.67 924.48,2506.74"/>
        <lane id=":1602368161_0_1" index="1" speed="13.89" length="4.08" shape="929.89,2506.32 928.92,2505.87 928.23,2505.62 927.59,2505.27 926.83,2504.57"/>
    </edge>
    <edge id=":1602368181_0" function="internal">
        <lane id=":1602368181_0_0" index="0" speed="13.89" length="0.96" shape="968.49,2493.37 968.41,2493.79 968.34,2494.08 968.23,2494.35 968.05,2494.73"/>
        <lane id=":1602368181_0_1" index="1" speed="13.89" length="0.96" shape="965.33,2492.85 965.31,2492.99 965.28,2493.08 965.25,2493.17 965.18,2493.30"/>
    </edge>
    <edge id=":1602368201_0" function="internal">
        <lane id=":1602368201_0_0" index="0" speed="13.89" length="3.98" shape="969.62,2485.30 969.71,2486.60 969.61,2487.50 969.38,2488.39 969.10,2489.69"/>
        <lane id=":1602368201_0_1" index="1" speed="13.89" length="3.98" shape="966.45,2485.73 966.51,2486.75 966.39,2487.45 966.18,2488.14 965.95,2489.16"/>
    </edge>
    <edge id=":1602368252_0" function="internal">
        <lane id=":1602368252_0_0" index="0" speed="13.89" length="2.39" shape="920.36,2468.10 922.41,2466.33"/>
        <lane id=":1602368252_0_1" index="1" speed="13.89" length="2.39" shape="922.99,2470.07 924.55,2468.71"/>
    </edge>
    <edge id=":1602368252_2" function="internal">
        <lane id=":1602368252_2_0" index="0" speed="13.89" length="2.35" shape="920.65,2468.32 921.12,2467.69 921.46,2467.26 921.83,2466.87 922.41,2466.33"/>
        <lane id=":1602368252_2_1" index="1" speed="13.89" length="2.35" shape="923.22,2470.24 923.57,2469.75 923.83,2469.42 924.11,2469.12 924.55,2468.71"/>
    </edge>
    <edge id=":1602368336_0" function="internal">
        <lane id=":1602368336_0_0" index="0" speed="9.14" length="1.27" shape="1723.90,2556.62 1724.32,2556.99 1724.59,2557.28 1724.80,2557.60 1725.05,2558.10"/>
        <lane id=":1602368336_0_1" index="1" speed="13.89" length="1.27" shape="1721.80,2559.03 1721.94,2559.16 1722.03,2559.25 1722.10,2559.36 1722.19,2559.53"/>
    </edge>
    <edge id=":1602368337_0" function="internal">
        <lane id=":1602368337_0_0" index="0" speed="13.89" length="3.97" shape="916.72,2495.77 916.14,2494.59 915.70,2493.78 915.38,2492.94 915.15,2491.66"/>
        <lane id=":1602368337_0_1" index="1" speed="13.89" length="3.97" shape="919.65,2494.49 919.18,2493.56 918.81,2492.94 918.52,2492.29 918.33,2491.29"/>
    </edge>
    <edge id=":1602368502_0" function="internal">
        <lane id=":1602368502_0_0" index="0" speed="19.45" length="11.40" shape="1721.10,2595.01 1719.17,2597.62 1718.33,2599.70 1717.77,2601.97 1716.72,2605.11"/>
        <lane id=":1602368502_0_1" index="1" speed="19.45" length="11.40" shape="1721.10,2595.01 1718.65,2597.48 1716.82,2599.08 1715.29,2600.87 1713.76,2603.90"/>
    </edge>
    <edge id=":1602368502_2" function="internal">
        <lane id=":1602368502_2_0" index="0" speed="13.89" length="11.53" shape="1721.10,2595.01 1718.57,2597.50 1716.48,2598.77 1714.11,2599.70 1710.79,2601.14"/>
        <lane id=":1602368502_2_1" index="1" speed="13.89" length="11.53" shape="1718.69,2592.90 1716.42,2595.11 1714.51,2596.21 1712.37,2596.99 1709.38,2598.27"/>
    </edge>
    <edge id=":1602368521_0" function="internal">
        <lane id=":1602368521_0_0" index="0" speed="11.48" length="1.06" shape="942.83,2513.04 942.36,2513.11 942.04,2513.14 941.72,2513.11 941.25,2513.04"/>
        <lane id=":1602368521_0_1" index="1" speed="13.89" length="1.06" shape="942.31,2509.88 942.15,2509.91 942.04,2509.91 941.93,2509.91 941.78,2509.88"/>
    </edge>
    <edge id=":1602368545_0" function="internal">
        <lane id=":1602368545_0_0" index="0" speed="9.12" length="1.27" shape="1730.23,2577.16 1730.26,2577.72 1730.24,2578.11 1730.16,2578.49 1729.98,2579.03"/>
        <lane id=":1602368545_0_1" index="1" speed="13.89" length="1.27" shape="1727.03,2577.38 1727.04,2577.57 1727.04,2577.70 1727.01,2577.82 1726.95,2578.00"/>
    </edge>
    <edge id=":1602368580_0" function="internal">
        <lane id=":1602368580_0_0" index="0" speed="13.89" length="0.91" shape="939.60,2458.21 940.00,2458.13 940.28,2458.09 940.56,2458.09 940.96,2458.12"/>
        <lane id=":1602368580_0_1" index="1" speed="13.89" length="0.91" shape="940.26,2461.34 940.39,2461.31 940.48,2461.30 940.58,2461.30 940.71,2461.31"/>
    </edge>
    <edge id=":1602368581_0" function="internal">
        <lane id=":1602368581_0_0" index="0" speed="9.15" length="1.27" shape="1727.06,2587.65 1726.88,2588.18 1726.71,2588.53 1726.49,2588.85 1726.13,2589.27"/>
        <lane id=":1602368581_0_1" index="1" speed="13.89" length="1.27" shape="1724.03,2586.62 1723.97,2586.80 1723.92,2586.92 1723.84,2587.02 1723.72,2587.16"/>
    </edge>
    <edge id=":1602368605_0" function="internal">
        <lane id=":1602368605_0_0" index="0" speed="13.89" length="0.91" shape="931.98,2459.99 932.34,2459.81 932.60,2459.69 932.86,2459.61 933.26,2459.53"/>
        <lane id=":1602368605_0_1" index="1" speed="13.89" length="0.91" shape="933.49,2462.82 933.61,2462.75 933.69,2462.72 933.78,2462.69 933.91,2462.66"/>
    </edge>
    <edge id=":1602368634_0" function="internal">
        <lane id=":1602368634_0_0" index="0" speed="10.38" length="8.87" shape="1677.06,2586.29 1675.68,2584.22 1674.20,2583.25 1672.33,2582.70 1669.79,2581.89"/>
    </edge>
    <edge id=":1602368634_1" function="internal">
        <lane id=":1602368634_1_0" index="0" speed="10.98" length="9.97" shape="1677.06,2586.29 1675.83,2583.58 1674.88,2581.65 1673.49,2580.20 1670.96,2578.91"/>
    </edge>
    <edge id=":1602368634_2" function="internal">
        <lane id=":1602368634_2_0" index="0" speed="13.89" length="9.76" shape="1677.06,2586.29 1675.73,2583.52 1675.03,2581.52 1674.70,2579.41 1674.47,2576.34"/>
        <lane id=":1602368634_2_1" index="1" speed="13.89" length="9.76" shape="1679.92,2584.86 1678.76,2582.43 1678.15,2580.67 1677.86,2578.82 1677.67,2576.13"/>
    </edge>
    <edge id=":1602368636_0" function="internal">
        <lane id=":1602368636_0_0" index="0" speed="9.16" length="1.26" shape="1729.11,2566.26 1729.36,2566.77 1729.49,2567.13 1729.56,2567.51 1729.60,2568.07"/>
        <lane id=":1602368636_0_1" index="1" speed="13.89" length="1.26" shape="1726.25,2567.69 1726.33,2567.86 1726.37,2567.98 1726.40,2568.11 1726.41,2568.29"/>
    </edge>
    <edge id=":1602368699_0" function="internal">
        <lane id=":1602368699_0_0" index="0" speed="13.89" length="4.08" shape="936.79,2512.29 935.43,2512.13 934.47,2512.05 933.57,2511.85 932.34,2511.28"/>
        <lane id=":1602368699_0_1" index="1" speed="13.89" length="4.08" shape="937.32,2509.13 936.26,2509.03 935.52,2509.01 934.81,2508.88 933.86,2508.47"/>
    </edge>
    <edge id=":1602368734_0" function="internal">
        <lane id=":1602368734_0_0" index="0" speed="13.89" length="3.86" shape="960.72,2465.35 961.69,2466.15 962.26,2466.81 962.75,2467.54 963.50,2468.56"/>
        <lane id=":1602368734_0_1" index="1" speed="13.89" length="3.86" shape="958.83,2467.93 959.60,2468.58 960.03,2469.12 960.41,2469.73 961.00,2470.56"/>
    </edge>
    <edge id=":1602368748_0" function="internal">
        <lane id=":1602368748_0_0" index="0" speed="9.24" length="1.25" shape="1699.50,2602.41 1698.94,2602.44 1698.56,2602.43 1698.19,2602.35 1697.66,2602.17"/>
        <lane id=":1602368748_0_1" index="1" speed="13.89" length="1.25" shape="1699.29,2599.22 1699.10,2599.23 1698.98,2599.23 1698.85,2599.20 1698.67,2599.14"/>
    </edge>
    <edge id=":1602368753_0" function="internal">
        <lane id=":1602368753_0_0" index="0" speed="9.13" length="1.27" shape="1674.17,2571.80 1674.13,2571.24 1674.15,2570.85 1674.24,2570.47 1674.41,2569.93"/>
        <lane id=":1602368753_0_1" index="1" speed="13.89" length="1.27" shape="1677.36,2571.58 1677.35,2571.40 1677.35,2571.27 1677.38,2571.14 1677.44,2570.96"/>
    </edge>
    <edge id=":1602419114_0" function="internal">
        <lane id=":1602419114_0_0" index="0" speed="13.89" length="0.10" shape="449.44,2527.40 449.44,2527.40"/>
        <lane id=":1602419114_0_1" index="1" speed="13.89" length="0.10" shape="452.14,2529.12 452.14,2529.12"/>
    </edge>
    <edge id=":1602419129_0" function="internal">
        <lane id=":1602419129_0_0" index="0" speed="9.17" length="1.26" shape="493.93,2454.27 493.53,2453.88 493.28,2453.58 493.09,2453.24 492.86,2452.73"/>
        <lane id=":1602419129_0_1" index="1" speed="13.89" length="1.26" shape="496.15,2451.96 496.01,2451.83 495.93,2451.73 495.87,2451.62 495.79,2451.45"/>
    </edge>
    <edge id=":1602419169_0" function="internal">
        <lane id=":1602419169_0_0" index="0" speed="9.17" length="1.26" shape="529.32,2415.02 529.84,2415.23 530.18,2415.41 530.49,2415.64 530.90,2416.02"/>
        <lane id=":1602419169_0_1" index="1" speed="13.89" length="1.26" shape="528.15,2418.00 528.33,2418.07 528.44,2418.13 528.54,2418.20 528.68,2418.33"/>
    </edge>
    <edge id=":1602419189_0" function="internal">
        <lane id=":1602419189_0_0" index="0" speed="13.89" length="4.25" shape="489.99,2446.17 489.43,2444.84 489.13,2443.89 489.00,2442.90 488.96,2441.46"/>
        <lane id=":1602419189_0_1" index="1" speed="12.38" length="4.25" shape="492.92,2444.89 492.50,2443.91 492.28,2443.20 492.19,2442.47 492.16,2441.40"/>
    </edge>
    <edge id=":1602419189_2" function="internal">
        <lane id=":1602419189_2_0" index="0" speed="13.89" length="3.00" shape="488.95,2444.39 488.96,2441.46"/>
        <lane id=":1602419189_2_1" index="1" speed="13.89" length="3.00" shape="492.15,2444.47 492.16,2441.40"/>
    </edge>
    <edge id=":1602419211_0" function="internal">
        <lane id=":1602419211_0_0" index="0" speed="13.89" length="3.60" shape="523.53,2463.65 522.76,2463.99 522.24,2464.24 521.74,2464.51 521.00,2464.92"/>
        <lane id=":1602419211_0_1" index="1" speed="13.89" length="3.60" shape="523.53,2463.65 519.44,2462.13"/>
    </edge>
    <edge id=":1602419211_2" function="internal">
        <lane id=":1602419211_2_0" index="0" speed="13.89" length="4.23" shape="523.53,2463.65 522.21,2464.21 521.26,2464.50 520.28,2464.62 518.84,2464.67"/>
        <lane id=":1602419211_2_1" index="1" speed="12.60" length="4.23" shape="522.27,2460.71 521.28,2461.13 520.58,2461.34 519.85,2461.44 518.78,2461.47"/>
    </edge>
    <edge id=":1602419248_0" function="internal">
        <lane id=":1602419248_0_0" index="0" speed="9.15" length="1.27" shape="499.41,2416.59 499.80,2416.20 500.10,2415.95 500.44,2415.76 500.95,2415.53"/>
        <lane id=":1602419248_0_1" index="1" speed="13.89" length="1.27" shape="501.71,2418.82 501.84,2418.69 501.94,2418.61 502.05,2418.54 502.22,2418.47"/>
    </edge>
    <edge id=":1602419270_0" function="internal">
        <lane id=":1602419270_0_0" index="0" speed="9.19" length="1.26" shape="511.68,2464.79 511.12,2464.80 510.74,2464.76 510.37,2464.66 509.84,2464.46"/>
        <lane id=":1602419270_0_1" index="1" speed="13.89" length="1.26" shape="511.63,2461.59 511.44,2461.59 511.31,2461.58 511.19,2461.55 511.01,2461.48"/>
    </edge>
    <edge id=":1602419271_0" function="internal">
        <lane id=":1602419271_0_0" index="0" speed="9.16" length="1.26" shape="492.36,2424.39 492.58,2423.87 492.76,2423.53 492.99,2423.22 493.38,2422.81"/>
        <lane id=":1602419271_0_1" index="1" speed="13.89" length="1.26" shape="495.34,2425.57 495.41,2425.39 495.47,2425.28 495.55,2425.18 495.68,2425.04"/>
    </edge>
    <edge id=":1602419291_0" function="internal">
        <lane id=":1602419291_0_0" index="0" speed="9.15" length="1.27" shape="531.70,2459.73 531.31,2460.12 531.01,2460.37 530.67,2460.56 530.16,2460.79"/>
        <lane id=":1602419291_0_1" index="1" speed="13.89" length="1.27" shape="529.40,2457.50 529.27,2457.63 529.17,2457.71 529.06,2457.78 528.89,2457.85"/>
    </edge>
    <edge id=":1602419326_0" function="internal">
        <lane id=":1602419326_0_0" index="0" speed="9.14" length="1.27" shape="488.84,2434.30 488.83,2433.74 488.87,2433.35 488.97,2432.98 489.17,2432.45"/>
        <lane id=":1602419326_0_1" index="1" speed="13.89" length="1.27" shape="492.04,2434.25 492.04,2434.06 492.05,2433.93 492.08,2433.80 492.15,2433.63"/>
    </edge>
    <edge id=":1602419331_0" function="internal">
        <lane id=":1602419331_0_0" index="0" speed="12.09" length="10.47" shape="543.99,2453.34 541.17,2453.63 539.12,2453.76 537.32,2454.36 535.25,2456.07"/>
        <lane id=":1602419331_0_1" index="1" speed="13.28" length="10.47" shape="543.44,2450.18 540.03,2450.60 537.59,2450.87 535.45,2451.72 532.95,2453.84"/>
    </edge>
    <edge id=":1602419331_2" function="internal">
        <lane id=":1602419331_2_0" index="0" speed="13.89" length="10.20" shape="540.75,2446.88 539.58,2449.88 538.65,2451.90 537.40,2453.71 535.25,2456.07"/>
        <lane id=":1602419331_2_1" index="1" speed="13.89" length="10.20" shape="537.77,2445.70 536.75,2448.35 535.94,2450.15 534.85,2451.75 532.95,2453.84"/>
    </edge>
    <edge id=":1602419342_0" function="internal">
        <lane id=":1602419342_0_0" index="0" speed="9.22" length="1.25" shape="519.44,2411.54 519.99,2411.54 520.38,2411.57 520.75,2411.67 521.27,2411.87"/>
        <lane id=":1602419342_0_1" index="1" speed="13.89" length="1.25" shape="519.49,2414.74 519.68,2414.74 519.81,2414.75 519.93,2414.78 520.10,2414.85"/>
    </edge>
    <edge id=":1602419348_0" function="internal">
        <lane id=":1602419348_0_0" index="0" speed="9.22" length="1.26" shape="508.92,2412.08 509.44,2411.87 509.81,2411.75 510.19,2411.71 510.74,2411.69"/>
        <lane id=":1602419348_0_1" index="1" speed="13.89" length="1.26" shape="510.19,2415.02 510.36,2414.95 510.49,2414.91 510.61,2414.89 510.80,2414.89"/>
    </edge>
    <edge id=":1602419424_0" function="internal">
        <lane id=":1602419424_0_0" index="0" speed="9.16" length="1.26" shape="537.18,2422.06 537.58,2422.45 537.83,2422.75 538.02,2423.09 538.25,2423.60"/>
        <lane id=":1602419424_0_1" index="1" speed="13.89" length="1.26" shape="534.96,2424.37 535.09,2424.50 535.18,2424.60 535.24,2424.71 535.32,2424.88"/>
    </edge>
    <edge id=":1602419460_0" function="internal">
        <lane id=":1602419460_0_0" index="0" speed="13.89" length="0.30" shape="464.97,2537.07 464.82,2537.32"/>
        <lane id=":1602419460_0_1" index="1" speed="13.89" length="0.30" shape="462.27,2535.36 462.10,2535.62"/>
    </edge>
    <edge id=":1602419490_0" function="internal">
        <lane id=":1602419490_0_0" index="0" speed="9.19" length="1.26" shape="501.74,2461.28 501.22,2461.07 500.88,2460.89 500.57,2460.65 500.17,2460.27"/>
        <lane id=":1602419490_0_1" index="1" speed="13.89" length="1.26" shape="502.91,2458.30 502.74,2458.23 502.62,2458.17 502.52,2458.09 502.38,2457.96"/>
    </edge>
    <edge id=":1602519080_0" function="internal">
        <lane id=":1602519080_0_0" index="0" speed="8.33" length="14.48" shape="304.90,2689.60 290.99,2685.58"/>
    </edge>
    <edge id=":1602519080_1" function="internal">
        <lane id=":1602519080_1_0" index="0" speed="7.30" length="11.75" shape="304.90,2689.60 302.68,2688.38 301.46,2686.31 301.24,2683.38 302.02,2679.58"/>
    </edge>
    <edge id=":1602519080_2" function="internal">
        <lane id=":1602519080_2_0" index="0" speed="3.65" length="4.67" shape="304.90,2689.60 303.97,2688.50 303.81,2687.62 304.41,2686.96 305.79,2686.52"/>
    </edge>
    <edge id=":1602519080_3" function="internal">
        <lane id=":1602519080_3_0" index="0" speed="6.58" length="9.16" shape="291.88,2682.50 294.36,2682.85 296.37,2682.33 297.90,2680.93 298.95,2678.66"/>
    </edge>
    <edge id=":1602519080_4" function="internal">
        <lane id=":1602519080_4_0" index="0" speed="8.33" length="14.48" shape="291.88,2682.50 305.79,2686.52"/>
    </edge>
    <edge id=":1602519080_5" function="internal">
        <lane id=":1602519080_5_0" index="0" speed="3.65" length="4.67" shape="291.88,2682.50 292.81,2683.61 292.97,2684.48 292.36,2685.14 290.99,2685.58"/>
    </edge>
    <edge id=":1602519080_6" function="internal">
        <lane id=":1602519080_6_0" index="0" speed="6.48" length="9.03" shape="294.76,2692.52 295.14,2690.07 294.63,2688.09 293.25,2686.60 290.99,2685.58"/>
    </edge>
    <edge id=":1602519080_7" function="internal">
        <lane id=":1602519080_7_0" index="0" speed="8.33" length="14.48" shape="294.76,2692.52 298.95,2678.66"/>
        <lane id=":1602519080_7_1" index="1" speed="8.33" length="14.48" shape="297.82,2693.44 302.02,2679.58"/>
    </edge>
    <edge id=":1602519080_9" function="internal">
        <lane id=":1602519080_9_0" index="0" speed="7.39" length="11.83" shape="297.82,2693.44 299.28,2689.83 301.10,2687.47 303.27,2686.37 305.79,2686.52"/>
    </edge>
    <edge id=":1602519106_0" function="internal">
        <lane id=":1602519106_0_0" index="0" speed="8.33" length="0.10" shape="55.75,2557.12 55.75,2557.12"/>
    </edge>
    <edge id=":1602519106_1" function="internal">
        <lane id=":1602519106_1_0" index="0" speed="8.33" length="0.10" shape="56.80,2554.10 56.80,2554.10"/>
    </edge>
    <edge id=":1602519140_0" function="internal">
        <lane id=":1602519140_0_0" index="0" speed="8.33" length="0.24" shape="11.74,2541.92 11.67,2541.90 11.63,2541.89 11.58,2541.87 11.51,2541.86"/>
    </edge>
    <edge id=":1602519140_1" function="internal">
        <lane id=":1602519140_1_0" index="0" speed="8.33" length="0.71" shape="12.10,2538.72 12.30,2538.75 12.45,2538.79 12.58,2538.83 12.78,2538.90"/>
    </edge>
    <edge id=":1602519143_0" function="internal">
        <lane id=":1602519143_0_0" index="0" speed="8.33" length="14.32" shape="401.29,2667.24 396.63,2680.78"/>
    </edge>
    <edge id=":1602519143_1" function="internal">
        <lane id=":1602519143_1_0" index="0" speed="8.00" length="5.87" shape="401.29,2667.24 399.51,2670.68 397.98,2671.96"/>
    </edge>
    <edge id=":1602519143_2" function="internal">
        <lane id=":1602519143_2_0" index="0" speed="3.65" length="2.34" shape="401.29,2667.24 400.14,2668.11 399.26,2668.22"/>
    </edge>
    <edge id=":1602519143_9" function="internal">
        <lane id=":1602519143_9_0" index="0" speed="8.00" length="8.28" shape="397.98,2671.96 397.05,2672.73 393.92,2673.38 390.11,2672.65"/>
    </edge>
    <edge id=":1602519143_10" function="internal">
        <lane id=":1602519143_10_0" index="0" speed="3.65" length="2.34" shape="399.26,2668.22 398.63,2667.58 398.27,2666.18"/>
    </edge>
    <edge id=":1602519143_3" function="internal">
        <lane id=":1602519143_3_0" index="0" speed="6.51" length="9.01" shape="391.16,2669.62 393.58,2670.09 395.57,2669.67 397.14,2668.37 398.27,2666.18"/>
    </edge>
    <edge id=":1602519143_4" function="internal">
        <lane id=":1602519143_4_0" index="0" speed="8.01" length="14.15" shape="391.16,2669.62 394.61,2671.39 396.67,2673.84 397.34,2676.97 396.63,2680.78"/>
    </edge>
    <edge id=":1602519143_5" function="internal">
        <lane id=":1602519143_5_0" index="0" speed="3.65" length="4.67" shape="391.16,2669.62 392.03,2670.77 392.15,2671.66 391.51,2672.28 390.11,2672.65"/>
    </edge>
    <edge id=":1602519143_6" function="internal">
        <lane id=":1602519143_6_0" index="0" speed="6.51" length="9.01" shape="393.60,2679.75 394.05,2677.33 393.62,2675.34 392.31,2673.78 390.11,2672.65"/>
    </edge>
    <edge id=":1602519143_7" function="internal">
        <lane id=":1602519143_7_0" index="0" speed="8.33" length="14.35" shape="393.60,2679.75 398.27,2666.18"/>
    </edge>
    <edge id=":1602519143_8" function="internal">
        <lane id=":1602519143_8_0" index="0" speed="3.65" length="2.34" shape="393.60,2679.75 394.74,2678.87 395.63,2678.75"/>
    </edge>
    <edge id=":1602519143_11" function="internal">
        <lane id=":1602519143_11_0" index="0" speed="3.65" length="2.34" shape="395.63,2678.75 396.26,2679.39 396.63,2680.78"/>
    </edge>
    <edge id=":1602519169_0" function="internal">
        <lane id=":1602519169_0_0" index="0" speed="8.33" length="0.30" shape="166.91,2595.54 166.62,2595.44"/>
    </edge>
    <edge id=":1602519169_1" function="internal">
        <lane id=":1602519169_1_0" index="0" speed="8.33" length="0.30" shape="167.67,2592.42 167.95,2592.51"/>
    </edge>
    <edge id=":1602519175_0" function="internal">
        <lane id=":1602519175_0_0" index="0" speed="8.33" length="0.10" shape="316.79,2920.45 316.79,2920.45"/>
    </edge>
    <edge id=":1602519175_1" function="internal">
        <lane id=":1602519175_1_0" index="0" speed="8.33" length="0.10" shape="313.75,2919.44 313.75,2919.44"/>
    </edge>
    <edge id=":1602519195_0" function="internal">
        <lane id=":1602519195_0_0" index="0" speed="8.33" length="0.10" shape="306.92,2950.16 306.92,2950.16"/>
    </edge>
    <edge id=":1602519195_1" function="internal">
        <lane id=":1602519195_1_0" index="0" speed="8.33" length="0.10" shape="303.89,2949.16 303.89,2949.16"/>
    </edge>
    <edge id=":1602519205_0" function="internal">
        <lane id=":1602519205_0_0" index="0" speed="6.37" length="9.04" shape="247.43,2623.28 244.98,2622.80 243.01,2623.25 241.52,2624.62 240.52,2626.91"/>
    </edge>
    <edge id=":1602519205_1" function="internal">
        <lane id=":1602519205_1_0" index="0" speed="8.33" length="14.81" shape="247.43,2623.28 233.43,2618.44"/>
    </edge>
    <edge id=":1602519205_2" function="internal">