<edges>
	<edge id="147711856_1602368502_1602368049_1602368502" from="1602368502" to="1609101355" numLanes="2" speed="13.89" />
	<edge id="147711856_1602368502_1602368049_1609101355" from="1609101355" to="1602368748" numLanes="2" speed="13.89" />
	<edge id="147711856_1602368502_1602368049_1602368748" from="1602368748" to="1602368049" numLanes="2" speed="13.89" />
	<edge id="147059908_1602519143_1602519380_1602519143" from="1602519143" to="1602519380" numLanes="1" speed="8.33" />
	<edge id="147059952_1602519080_1602519293_1602519080" from="1602519080" to="1602519293" numLanes="1" speed="8.33" />
	<edge id="147059908_5324893707_1602519143_5324893707" from="5324893707" to="5324893718" numLanes="1" speed="8.33" />
	<edge id="147059908_5324893707_1602519143_5324893718" from="5324893718" to="5324893717" numLanes="1" speed="8.33" />
	<edge id="147059908_5324893707_1602519143_5324893717" from="5324893717" to="1602519257" numLanes="1" speed="8.33" />
	<edge id="147059908_5324893707_1602519143_1602519257" from="1602519257" to="1602519195" numLanes="1" speed="8.33" />
	<edge id="147059908_5324893707_1602519143_1602519195" from="1602519195" to="1602519175" numLanes="1" speed="8.33" />
	<edge id="147059908_5324893707_1602519143_1602519175" from="1602519175" to="1602519321" numLanes="1" speed="8.33" />
	<edge id="147059908_5324893707_1602519143_1602519321" from="1602519321" to="1602519379" numLanes="1" speed="8.33" />
	<edge id="147059908_5324893707_1602519143_1602519379" from="1602519379" to="1602519143" numLanes="1" speed="8.33" />
	<edge id="147059908_1602519380_1602519143_1602519380" from="1602519380" to="1602519143" numLanes="1" speed="8.33" />
	<edge id="552381988_1602519293_1602519274_1602519293" from="1602519293" to="1602519274" numLanes="1" speed="8.33" />
	<edge id="808910983_1602419331_1602419211_1602419331" from="1602419331" to="1602419291" numLanes="2" speed="13.89" />
	<edge id="808910983_1602419331_1602419211_1602419291" from="1602419291" to="1602419211" numLanes="2" speed="13.89" />
	<edge id="147711881_1602419460_5324786800_1602419460" from="1602419460" to="5324786800" numLanes="2" speed="13.89" />
	<edge id="147046432_5324786800_1602519380_5324786800" from="5324786800" to="5324786815" numLanes="1" speed="8.33" />
	<edge id="147046432_5324786800_1602519380_5324786815" from="5324786815" to="5324786813" numLanes="1" speed="8.33" />
	<edge id="147046432_5324786800_1602519380_5324786813" from="5324786813" to="5324786814" numLanes="1" speed="8.33" />
	<edge id="147046432_5324786800_1602519380_5324786814" from="5324786814" to="5324786811" numLanes="1" speed="8.33" />
	<edge id="147046432_5324786800_1602519380_5324786811" from="5324786811" to="5324786812" numLanes="1" speed="8.33" />
	<edge id="147046432_5324786800_1602519380_5324786812" from="5324786812" to="1602519380" numLanes="1" speed="8.33" />
	<edge id="147059917_1602519080_1602519269_1602519080" from="1602519080" to="1602519269" numLanes="2" speed="8.33" />
	<edge id="147711856_1602368634_1602368044_1602368634" from="1602368634" to="1602368753" numLanes="2" speed="13.89" />
	<edge id="147711856_1602368634_1602368044_1602368753" from="1602368753" to="1602368044" numLanes="2" speed="13.89" />
	<edge id="551060299_5324871212_1602368044_5324871212" from="5324871212" to="5324871213" numLanes="2" speed="13.89" />
	<edge id="551060299_5324871212_1602368044_5324871213" from="5324871213" to="5321999682" numLanes="2" speed="13.89" />
	<edge id="551060299_5324871212_1602368044_5321999682" from="5321999682" to="1609101287" numLanes="2" speed="13.89" />
	<edge id="551060299_5324871212_1602368044_1609101287" from="1609101287" to="5321999684" numLanes="2" speed="13.89" />
	<edge id="551060299_5324871212_1602368044_5321999684" from="5321999684" to="5321999683" numLanes="2" speed="13.89" />
	<edge id="551060299_5324871212_1602368044_5321999683" from="5321999683" to="5227331209" numLanes="2" speed="13.89" />
	<edge id="551060299_5324871212_1602368044_5227331209" from="5227331209" to="1609101300" numLanes="2" speed="13.89" />
	<edge id="551060299_5324871212_1602368044_1609101300" from="1609101300" to="5321999681" numLanes="2" speed="13.89" />
	<edge id="551060299_5324871212_1602368044_5321999681" from="5321999681" to="1609101337" numLanes="2" speed="13.89" />
	<edge id="551060299_5324871212_1602368044_1609101337" from="1609101337" to="1609101339" numLanes="2" speed="13.89" />
	<edge id="551060299_5324871212_1602368044_1609101339" from="1609101339" to="1602368044" numLanes="2" speed="13.89" />
	<edge id="552381986_1602519269_1602519205_1602519269" from="1602519269" to="1602519205" numLanes="1" speed="8.33" />
	<edge id="147711854_1258708741_1602367989_1258708741" from="1258708741" to="5764531777" numLanes="1" speed="25.00" />
	<edge id="147711854_1258708741_1602367989_5764531777" from="5764531777" to="2308910728" numLanes="1" speed="25.00" />
	<edge id="147711854_1258708741_1602367989_2308910728" from="2308910728" to="1602367989" numLanes="1" speed="25.00" />
	<edge id="552381986_1602519274_1602519269_1602519274" from="1602519274" to="1602519269" numLanes="1" speed="8.33" />
	<edge id="147059967_1602519368_1602519304_1602519368" from="1602519368" to="1602519304" numLanes="1" speed="8.33" />
	<edge id="147711856_1602368104_1602368502_1602368104" from="1602368104" to="1602368336" numLanes="2" speed="13.89" />
	<edge id="147711856_1602368104_1602368502_1602368336" from="1602368336" to="1602368636" numLanes="2" speed="13.89" />
	<edge id="147711856_1602368104_1602368502_1602368636" from="1602368636" to="1602368545" numLanes="2" speed="13.89" />
	<edge id="147711856_1602368104_1602368502_1602368545" from="1602368545" to="1602368581" numLanes="2" speed="13.89" />
	<edge id="147711856_1602368104_1602368502_1602368581" from="1602368581" to="1602368502" numLanes="2" speed="13.89" />
	<edge id="147711861_1602368502_1609101376_1602368502" from="1602368502" to="1609101376" numLanes="2" speed="25.00" />
	<edge id="147046425_5324786800_1602419114_5324786800" from="5324786800" to="5324786795" numLanes="2" speed="13.89" />
	<edge id="147046425_5324786800_1602419114_5324786795" from="5324786795" to="1602419114" numLanes="2" speed="13.89" />
	<edge id="147046541_1602368634_1602368066_1602368634" from="1602368634" to="1609101346" numLanes="2" speed="13.89" />
	<edge id="147046541_1602368634_1602368066_1609101346" from="1609101346" to="1609101344" numLanes="2" speed="13.89" />
	<edge id="147046541_1602368634_1602368066_1609101344" from="1609101344" to="5321490947" numLanes="2" speed="13.89" />
	<edge id="147046541_1602368634_1602368066_5321490947" from="5321490947" to="5227331208" numLanes="2" speed="13.89" />
	<edge id="147046541_1602368634_1602368066_5227331208" from="5227331208" to="5321999685" numLanes="2" speed="13.89" />
	<edge id="147046541_1602368634_1602368066_5321999685" from="5321999685" to="5321999686" numLanes="2" speed="13.89" />
	<edge id="147046541_1602368634_1602368066_5321999686" from="5321999686" to="5321999688" numLanes="2" speed="13.89" />
	<edge id="147046541_1602368634_1602368066_5321999688" from="5321999688" to="5321999689" numLanes="2" speed="13.89" />
	<edge id="147046541_1602368634_1602368066_5321999689" from="5321999689" to="5324871214" numLanes="2" speed="13.89" />
	<edge id="147046541_1602368634_1602368066_5324871214" from="5324871214" to="5321999690" numLanes="2" speed="13.89" />
	<edge id="147046541_1602368634_1602368066_5321999690" from="5321999690" to="1602368066" numLanes="2" speed="13.89" />
	<edge id="147059908_1602519143_5324893707_1602519143" from="1602519143" to="1602519379" numLanes="1" speed="8.33" />
	<edge id="147059908_1602519143_5324893707_1602519379" from="1602519379" to="1602519321" numLanes="1" speed="8.33" />
	<edge id="147059908_1602519143_5324893707_1602519321" from="1602519321" to="1602519175" numLanes="1" speed="8.33" />
	<edge id="147059908_1602519143_5324893707_1602519175" from="1602519175" to="1602519195" numLanes="1" speed="8.33" />
	<edge id="147059908_1602519143_5324893707_1602519195" from="1602519195" to="1602519257" numLanes="1" speed="8.33" />
	<edge id="147059908_1602519143_5324893707_1602519257" from="1602519257" to="5324893717" numLanes="1" speed="8.33" />
	<edge id="147059908_1602519143_5324893707_5324893717" from="5324893717" to="5324893718" numLanes="1" speed="8.33" />
	<edge id="147059908_1602519143_5324893707_5324893718" from="5324893718" to="5324893707" numLanes="1" speed="8.33" />
	<edge id="221910032_1258708741_373316282_1258708741" from="1258708741" to="2308910680" numLanes="2" speed="25.00" />
	<edge id="221910032_1258708741_373316282_2308910680" from="2308910680" to="2308910667" numLanes="2" speed="25.00" />
	<edge id="221910032_1258708741_373316282_2308910667" from="2308910667" to="2308910656" numLanes="2" speed="25.00" />
	<edge id="221910032_1258708741_373316282_2308910656" from="2308910656" to="2308910648" numLanes="2" speed="25.00" />
	<edge id="221910032_1258708741_373316282_2308910648" from="2308910648" to="1680719564" numLanes="2" speed="25.00" />
	<edge id="221910032_1258708741_373316282_1680719564" from="1680719564" to="373316282" numLanes="2" speed="25.00" />
	<edge id="147040376_5324779206_1602368252_5324779206" from="5324779206" to="1602368337" numLanes="2" speed="13.89" />
	<edge id="147040376_5324779206_1602368252_1602368337" from="1602368337" to="1602368068" numLanes="2" speed="13.89" />
	<edge id="147040376_5324779206_1602368252_1602368068" from="1602368068" to="5324779202" numLanes="2" speed="13.89" />
	<edge id="147040376_5324779206_1602368252_5324779202" from="5324779202" to="5324871208" numLanes="2" speed="13.89" />
	<edge id="147040376_5324779206_1602368252_5324871208" from="5324871208" to="1602368252" numLanes="2" speed="13.89" />
	<edge id="147040376_1602368252_5324871212_1602368252" from="1602368252" to="1602368140" numLanes="2" speed="13.89" />
	<edge id="147040376_1602368252_5324871212_1602368140" from="1602368140" to="1602368605" numLanes="2" speed="13.89" />
	<edge id="147040376_1602368252_5324871212_1602368605" from="1602368605" to="1602368580" numLanes="2" speed="13.89" />
	<edge id="147040376_1602368252_5324871212_1602368580" from="1602368580" to="5324779203" numLanes="2" speed="13.89" />
	<edge id="147040376_1602368252_5324871212_5324779203" from="5324779203" to="1602368053" numLanes="2" speed="13.89" />
	<edge id="147040376_1602368252_5324871212_1602368053" from="1602368053" to="1602368734" numLanes="2" speed="13.89" />
	<edge id="147040376_1602368252_5324871212_1602368734" from="1602368734" to="5324871212" numLanes="2" speed="13.89" />
	<edge id="552381987_1602519356_1602519304_1602519356" from="1602519356" to="1602519304" numLanes="1" speed="8.33" />
	<edge id="147711890_1609101303_1602419189_1609101303" from="1609101303" to="5227331201" numLanes="2" speed="13.89" />
	<edge id="147711890_1609101303_1602419189_5227331201" from="5227331201" to="5324786797" numLanes="2" speed="13.89" />
	<edge id="147711890_1609101303_1602419189_5324786797" from="5324786797" to="1609101266" numLanes="2" speed="13.89" />
	<edge id="147711890_1609101303_1602419189_1609101266" from="1609101266" to="1602419189" numLanes="2" speed="13.89" />
	<edge id="552381986_1602519205_5333244400_1602519205" from="1602519205" to="1602519169" numLanes="1" speed="8.33" />
	<edge id="552381986_1602519205_5333244400_1602519169" from="1602519169" to="1602519392" numLanes="1" speed="8.33" />
	<edge id="552381986_1602519205_5333244400_1602519392" from="1602519392" to="1602519106" numLanes="1" speed="8.33" />
	<edge id="552381986_1602519205_5333244400_1602519106" from="1602519106" to="1602519140" numLanes="1" speed="8.33" />
	<edge id="552381986_1602519205_5333244400_1602519140" from="1602519140" to="5333244403" numLanes="1" speed="8.33" />
	<edge id="552381986_1602519205_5333244400_5333244403" from="5333244403" to="5333244404" numLanes="1" speed="8.33" />
	<edge id="552381986_1602519205_5333244400_5333244404" from="5333244404" to="5333244402" numLanes="1" speed="8.33" />
	<edge id="552381986_1602519205_5333244400_5333244402" from="5333244402" to="5333244400" numLanes="1" speed="8.33" />
	<edge id="552381987_5333204885_1602519205_5333204885" from="5333204885" to="1602519205" numLanes="1" speed="8.33" />
	<edge id="552381988_1602519274_1602519293_1602519274" from="1602519274" to="1602519293" numLanes="1" speed="8.33" />
	<edge id="551361826_5324779206_1602419331_5324779206" from="5324779206" to="5324871205" numLanes="2" speed="13.89" />
	<edge id="551361826_5324779206_1602419331_5324871205" from="5324871205" to="5324871204" numLanes="2" speed="13.89" />
	<edge id="551361826_5324779206_1602419331_5324871204" from="5324871204" to="5324871203" numLanes="2" speed="13.89" />
	<edge id="551361826_5324779206_1602419331_5324871203" from="5324871203" to="5324871202" numLanes="2" speed="13.89" />
	<edge id="551361826_5324779206_1602419331_5324871202" from="5324871202" to="5324871201" numLanes="2" speed="13.89" />
	<edge id="551361826_5324779206_1602419331_5324871201" from="5324871201" to="5324871200" numLanes="2" speed="13.89" />
	<edge id="551361826_5324779206_1602419331_5324871200" from="5324871200" to="1609101290" numLanes="2" speed="13.89" />
	<edge id="551361826_5324779206_1602419331_1609101290" from="1609101290" to="4879934675" numLanes="2" speed="13.89" />
	<edge id="551361826_5324779206_1602419331_4879934675" from="4879934675" to="1609101264" numLanes="2" speed="13.89" />
	<edge id="551361826_5324779206_1602419331_1609101264" from="1609101264" to="1602419331" numLanes="2" speed="13.89" />
	<edge id="147059952_1602519333_1602519356_1602519333" from="1602519333" to="1602519356" numLanes="1" speed="8.33" />
	<edge id="147059967_1602519304_1602519343_1602519304" from="1602519304" to="1602519343" numLanes="1" speed="8.33" />
	<edge id="147046432_1602519380_5324786800_1602519380" from="1602519380" to="5324786812" numLanes="1" speed="8.33" />
	<edge id="147046432_1602519380_5324786800_5324786812" from="5324786812" to="5324786811" numLanes="1" speed="8.33" />
	<edge id="147046432_1602519380_5324786800_5324786811" from="5324786811" to="5324786814" numLanes="1" speed="8.33" />
	<edge id="147046432_1602519380_5324786800_5324786814" from="5324786814" to="5324786813" numLanes="1" speed="8.33" />
	<edge id="147046432_1602519380_5324786800_5324786813" from="5324786813" to="5324786815" numLanes="1" speed="8.33" />
	<edge id="147046432_1602519380_5324786800_5324786815" from="5324786815" to="5324786800" numLanes="1" speed="8.33" />
	<edge id="147711863_1609101376_1602368049_1609101376" from="1609101376" to="1602368049" numLanes="2" speed="25.00" />
	<edge id="552385091_1602519341_5333204885_1602519341" from="1602519341" to="1602519263" numLanes="1" speed="8.33" />
	<edge id="552385091_1602519341_5333204885_1602519263" from="1602519263" to="5333204885" numLanes="1" speed="8.33" />
	<edge id="147059967_1602519368_1602519308_1602519368" from="1602519368" to="1602519308" numLanes="1" speed="8.33" />
	<edge id="147059967_1602519308_1602519368_1602519308" from="1602519308" to="1602519368" numLanes="1" speed="8.33" />
	<edge id="147711856_1602368044_1602367987_1602368044" from="1602368044" to="1602367987" numLanes="2" speed="13.89" />
	<edge id="147711856_1602367987_1602368104_1602367987" from="1602367987" to="1609101331" numLanes="2" speed="13.89" />
	<edge id="147711856_1602367987_1602368104_1609101331" from="1609101331" to="1609101333" numLanes="2" speed="13.89" />
	<edge id="147711856_1602367987_1602368104_1609101333" from="1609101333" to="1602368104" numLanes="2" speed="13.89" />
	<edge id="147046520_1602419211_1602419189_1602419211" from="1602419211" to="1602419270" numLanes="2" speed="13.89" />
	<edge id="147046520_1602419211_1602419189_1602419270" from="1602419270" to="1602419490" numLanes="2" speed="13.89" />
	<edge id="147046520_1602419211_1602419189_1602419490" from="1602419490" to="1602419129" numLanes="2" speed="13.89" />
	<edge id="147046520_1602419211_1602419189_1602419129" from="1602419129" to="1602419189" numLanes="2" speed="13.89" />
	<edge id="147059952_1602519080_1602519356_1602519080" from="1602519080" to="1602519356" numLanes="1" speed="8.33" />
	<edge id="147040376_1602368066_1602368123_1602368066" from="1602368066" to="1602368123" numLanes="2" speed="13.89" />
	<edge id="147059967_1602519343_1602519304_1602519343" from="1602519343" to="1602519304" numLanes="1" speed="8.33" />
	<edge id="147040376_5324871212_1602368066_5324871212" from="5324871212" to="1602367978" numLanes="2" speed="13.89" />
	<edge id="147040376_5324871212_1602368066_1602367978" from="1602367978" to="1602368201" numLanes="2" speed="13.89" />
	<edge id="147040376_5324871212_1602368066_1602368201" from="1602368201" to="1602368181" numLanes="2" speed="13.89" />
	<edge id="147040376_5324871212_1602368066_1602368181" from="1602368181" to="5324779205" numLanes="2" speed="13.89" />
	<edge id="147040376_5324871212_1602368066_5324779205" from="5324779205" to="1602368066" numLanes="2" speed="13.89" />
	<edge id="552385091_5333204885_1602519341_5333204885" from="5333204885" to="1602519263" numLanes="1" speed="8.33" />
	<edge id="552385091_5333204885_1602519341_1602519263" from="1602519263" to="1602519341" numLanes="1" speed="8.33" />
	<edge id="552385091_1602519242_5333204885_1602519242" from="1602519242" to="5333204885" numLanes="1" speed="8.33" />
	<edge id="33082049_1609101376_373316268_1609101376" from="1609101376" to="1609101377" numLanes="1" speed="25.00" />
	<edge id="33082049_1609101376_373316268_1609101377" from="1609101377" to="1609101378" numLanes="1" speed="25.00" />
	<edge id="33082049_1609101376_373316268_1609101378" from="1609101378" to="5413536780" numLanes="1" speed="25.00" />
	<edge id="33082049_1609101376_373316268_5413536780" from="5413536780" to="5262782978" numLanes="1" speed="25.00" />
	<edge id="33082049_1609101376_373316268_5262782978" from="5262782978" to="373316275" numLanes="1" speed="25.00" />
	<edge id="33082049_1609101376_373316268_373316275" from="373316275" to="5262782977" numLanes="1" speed="25.00" />
	<edge id="33082049_1609101376_373316268_5262782977" from="5262782977" to="373316268" numLanes="1" speed="25.00" />
	<edge id="147059952_1602519356_1602519333_1602519356" from="1602519356" to="1602519333" numLanes="1" speed="8.33" />
	<edge id="221910028_2947828163_373316282_2947828163" from="2947828163" to="373316286" numLanes="1" speed="25.00" />
	<edge id="221910028_2947828163_373316282_373316286" from="373316286" to="373316282" numLanes="1" speed="25.00" />
	<edge id="147059952_1602519356_1602519080_1602519356" from="1602519356" to="1602519080" numLanes="1" speed="8.33" />
	<edge id="808910983_5321490950_1602419331_5321490950" from="5321490950" to="2308910826" numLanes="2" speed="13.89" />
	<edge id="808910983_5321490950_1602419331_2308910826" from="2308910826" to="1602419331" numLanes="2" speed="13.89" />
	<edge id="147040376_1602368123_5324779206_1602368123" from="1602368123" to="1602368521" numLanes="2" speed="13.89" />
	<edge id="147040376_1602368123_5324779206_1602368521" from="1602368521" to="1602368699" numLanes="2" speed="13.89" />
	<edge id="147040376_1602368123_5324779206_1602368699" from="1602368699" to="1602368161" numLanes="2" speed="13.89" />
	<edge id="147040376_1602368123_5324779206_1602368161" from="1602368161" to="5324779206" numLanes="2" speed="13.89" />
	<edge id="147711856_1602368049_1602368634_1602368049" from="1602368049" to="1609101352" numLanes="2" speed="13.89" />
	<edge id="147711856_1602368049_1602368634_1609101352" from="1609101352" to="1602368634" numLanes="2" speed="13.89" />
	<edge id="147046520_1602419189_1602419248_1602419189" from="1602419189" to="1602419326" numLanes="2" speed="13.89" />
	<edge id="147046520_1602419189_1602419248_1602419326" from="1602419326" to="1602419271" numLanes="2" speed="13.89" />
	<edge id="147046520_1602419189_1602419248_1602419271" from="1602419271" to="1602419248" numLanes="2" speed="13.89" />
	<edge id="552381987_1602519205_1602519356_1602519205" from="1602519205" to="1602519356" numLanes="1" speed="8.33" />
	<edge id="221910031_373316282_1258708741_373316282" from="373316282" to="2308910640" numLanes="2" speed="25.00" />
	<edge id="221910031_373316282_1258708741_2308910640" from="2308910640" to="2308910644" numLanes="2" speed="25.00" />
	<edge id="221910031_373316282_1258708741_2308910644" from="2308910644" to="2308910650" numLanes="2" speed="25.00" />
	<edge id="221910031_373316282_1258708741_2308910650" from="2308910650" to="3592850911" numLanes="2" speed="25.00" />
	<edge id="221910031_373316282_1258708741_3592850911" from="3592850911" to="2308910660" numLanes="2" speed="25.00" />
	<edge id="221910031_373316282_1258708741_2308910660" from="2308910660" to="2308910674" numLanes="2" speed="25.00" />
	<edge id="221910031_373316282_1258708741_2308910674" from="2308910674" to="1258708741" numLanes="2" speed="25.00" />
	<edge id="552381988_1602519293_1602519308_1602519293" from="1602519293" to="1602519308" numLanes="1" speed="8.33" />
	<edge id="552381986_1602519143_1602519274_1602519143" from="1602519143" to="1602519274" numLanes="1" speed="8.33" />
	<edge id="552381987_1602519205_5333204885_1602519205" from="1602519205" to="5333204885" numLanes="1" speed="8.33" />
	<edge id="552381987_1602519356_1602519205_1602519356" from="1602519356" to="1602519205" numLanes="1" speed="8.33" />
	<edge id="552381986_1602519205_1602519269_1602519205" from="1602519205" to="1602519269" numLanes="1" speed="8.33" />
	<edge id="147046488_1602419211_1609101304_1602419211" from="1602419211" to="1609101278" numLanes="2" speed="13.89" />
	<edge id="147046488_1602419211_1609101304_1609101278" from="1609101278" to="5324786798" numLanes="2" speed="13.89" />
	<edge id="147046488_1602419211_1609101304_5324786798" from="5324786798" to="5227331202" numLanes="2" speed="13.89" />
	<edge id="147046488_1602419211_1609101304_5227331202" from="5227331202" to="1609101304" numLanes="2" speed="13.89" />
	<edge id="552381986_1602519274_1602519143_1602519274" from="1602519274" to="1602519143" numLanes="1" speed="8.33" />
	<edge id="147059967_1602519304_1602519368_1602519304" from="1602519304" to="1602519368" numLanes="1" speed="8.33" />
	<edge id="552381987_1602519304_1602519356_1602519304" from="1602519304" to="1602519356" numLanes="1" speed="8.33" />
	<edge id="552381986_5333244400_1602519205_5333244400" from="5333244400" to="5333244402" numLanes="1" speed="8.33" />
	<edge id="552381986_5333244400_1602519205_5333244402" from="5333244402" to="5333244404" numLanes="1" speed="8.33" />
	<edge id="552381986_5333244400_1602519205_5333244404" from="5333244404" to="5333244403" numLanes="1" speed="8.33" />
	<edge id="552381986_5333244400_1602519205_5333244403" from="5333244403" to="1602519140" numLanes="1" speed="8.33" />
	<edge id="552381986_5333244400_1602519205_1602519140" from="1602519140" to="1602519106" numLanes="1" speed="8.33" />
	<edge id="552381986_5333244400_1602519205_1602519106" from="1602519106" to="1602519392" numLanes="1" speed="8.33" />
	<edge id="552381986_5333244400_1602519205_1602519392" from="1602519392" to="1602519169" numLanes="1" speed="8.33" />
	<edge id="552381986_5333244400_1602519205_1602519169" from="1602519169" to="1602519205" numLanes="1" speed="8.33" />
	<edge id="33082049_373316268_1609101376_373316268" from="373316268" to="5262782977" numLanes="1" speed="25.00" />
	<edge id="33082049_373316268_1609101376_5262782977" from="5262782977" to="373316275" numLanes="1" speed="25.00" />
	<edge id="33082049_373316268_1609101376_373316275" from="373316275" to="5262782978" numLanes="1" speed="25.00" />
	<edge id="33082049_373316268_1609101376_5262782978" from="5262782978" to="5413536780" numLanes="1" speed="25.00" />
	<edge id="33082049_373316268_1609101376_5413536780" from="5413536780" to="1609101378" numLanes="1" speed="25.00" />
	<edge id="33082049_373316268_1609101376_1609101378" from="1609101378" to="1609101377" numLanes="1" speed="25.00" />
	<edge id="33082049_373316268_1609101376_1609101377" from="1609101377" to="1609101376" numLanes="1" speed="25.00" />
	<edge id="808910983_1602419348_5321490950_1602419348" from="1602419348" to="1602419342" numLanes="2" speed="13.89" />
	<edge id="808910983_1602419348_5321490950_1602419342" from="1602419342" to="1602419169" numLanes="2" speed="13.89" />
	<edge id="808910983_1602419348_5321490950_1602419169" from="1602419169" to="1602419424" numLanes="2" speed="13.89" />
	<edge id="808910983_1602419348_5321490950_1602419424" from="1602419424" to="5321490950" numLanes="2" speed="13.89" />
	<edge id="147059917_1602519368_1602519080_1602519368" from="1602519368" to="1602519080" numLanes="2" speed="8.33" />
	<edge id="147046478_1602367989_1602368104_1602367989" from="1602367989" to="1609101310" numLanes="2" speed="25.00" />
	<edge id="147046478_1602367989_1602368104_1609101310" from="1609101310" to="1602368104" numLanes="2" speed="25.00" />
	<edge id="147059952_1602519293_1602519080_1602519293" from="1602519293" to="1602519080" numLanes="1" speed="8.33" />
	<edge id="147711880_1609101304_1602419460_1609101304" from="1609101304" to="1602419460" numLanes="2" speed="13.89" />
	<edge id="552385091_5333204885_1602519242_5333204885" from="5333204885" to="1602519242" numLanes="1" speed="8.33" />
	<edge id="147046478_1602367987_1602367989_1602367987" from="1602367987" to="1609101330" numLanes="2" speed="25.00" />
	<edge id="147046478_1602367987_1602367989_1609101330" from="1609101330" to="1602367989" numLanes="2" speed="25.00" />
	<edge id="552381988_1602519308_1602519293_1602519308" from="1602519308" to="1602519293" numLanes="1" speed="8.33" />
	<edge id="147711854_1602367989_1258708741_1602367989" from="1602367989" to="2308910728" numLanes="1" speed="25.00" />
	<edge id="147711854_1602367989_1258708741_2308910728" from="2308910728" to="5764531777" numLanes="1" speed="25.00" />
	<edge id="147711854_1602367989_1258708741_5764531777" from="5764531777" to="1258708741" numLanes="1" speed="25.00" />
	<edge id="552381986_1602519269_1602519274_1602519269" from="1602519269" to="1602519274" numLanes="1" speed="8.33" />
	<edge id="808910984_1602419248_1602419348_1602419248" from="1602419248" to="1602419348" numLanes="2" speed="13.89" />
	<edge id="221910028_373316282_2947828163_373316282" from="373316282" to="373316286" numLanes="1" speed="25.00" />
	<edge id="221910028_373316282_2947828163_373316286" from="373316286" to="2947828163" numLanes="1" speed="25.00" />
	<edge id="147711874_1602419114_1609101303_1602419114" from="1602419114" to="1609101303" numLanes="2" speed="13.89" />
	<edge id="147046548_5321490950_1602368252_5321490950" from="5321490950" to="1609101259" numLanes="2" speed="13.89" />
	<edge id="147046548_5321490950_1602368252_1609101259" from="1609101259" to="4879934674" numLanes="2" speed="13.89" />
	<edge id="147046548_5321490950_1602368252_4879934674" from="4879934674" to="4964291812" numLanes="2" speed="13.89" />
	<edge id="147046548_5321490950_1602368252_4964291812" from="4964291812" to="5227331205" numLanes="2" speed="13.89" />
	<edge id="147046548_5321490950_1602368252_5227331205" from="5227331205" to="5324871206" numLanes="2" speed="13.89" />
	<edge id="147046548_5321490950_1602368252_5324871206" from="5324871206" to="5324871207" numLanes="2" speed="13.89" />
	<edge id="147046548_5321490950_1602368252_5324871207" from="5324871207" to="1609101283" numLanes="2" speed="13.89" />
	<edge id="147046548_5321490950_1602368252_1609101283" from="1609101283" to="5324871210" numLanes="2" speed="13.89" />
	<edge id="147046548_5321490950_1602368252_5324871210" from="5324871210" to="5324871209" numLanes="2" speed="13.89" />
	<edge id="147046548_5321490950_1602368252_5324871209" from="5324871209" to="5324871211" numLanes="2" speed="13.89" />
	<edge id="147046548_5321490950_1602368252_5324871211" from="5324871211" to="1602368252" numLanes="2" speed="13.89" />
	<roundabout edges="147040376_5324779206_1602368252_5324779206 147040376_5324779206_1602368252_1602368337 147040376_5324779206_1602368252_1602368068 147040376_5324779206_1602368252_5324779202 147040376_5324779206_1602368252_5324871208 147040376_1602368252_5324871212_1602368252 147040376_1602368252_5324871212_1602368140 147040376_1602368252_5324871212_1602368605 147040376_1602368252_5324871212_1602368580 147040376_1602368252_5324871212_5324779203 147040376_1602368252_5324871212_1602368053 147040376_1602368252_5324871212_1602368734 147040376_1602368066_1602368123_1602368066 147040376_5324871212_1602368066_5324871212 147040376_5324871212_1602368066_1602367978 147040376_5324871212_1602368066_1602368201 147040376_5324871212_1602368066_1602368181 147040376_5324871212_1602368066_5324779205 147040376_1602368123_5324779206_1602368123 147040376_1602368123_5324779206_1602368521 147040376_1602368123_5324779206_1602368699 147040376_1602368123_5324779206_1602368161" />
	<roundabout edges="808910983_1602419331_1602419211_1602419331 808910983_1602419331_1602419211_1602419291 147046520_1602419211_1602419189_1602419211 147046520_1602419211_1602419189_1602419270 147046520_1602419211_1602419189_1602419490 147046520_1602419211_1602419189_1602419129 808910983_5321490950_1602419331_5321490950 808910983_5321490950_1602419331_2308910826 147046520_1602419189_1602419248_1602419189 147046520_1602419189_1602419248_1602419326 147046520_1602419189_1602419248_1602419271 808910983_1602419348_5321490950_1602419348 808910983_1602419348_5321490950_1602419342 808910983_1602419348_5321490950_1602419169 808910983_1602419348_5321490950_1602419424 808910984_1602419248_1602419348_1602419248" />