<?xml version="1.0" ?>
<!-- Generated by VSimRTI -->
<routes>
	<vType id="default" length="7.5" maxSpeed="50" minGap="2.0" carFollowModel="Krauss" accel="0.80" decel="4.5" sigma="0.5" tau="1"/>
	<route id="1" edges="147059908_1602519143_5324893707_1602519379 147059908_1602519143_5324893707_1602519321 147059908_1602519143_5324893707_1602519175 147059908_1602519143_5324893707_1602519195 147059908_1602519143_5324893707_1602519257 147059908_1602519143_5324893707_5324893717 147059908_1602519143_5324893707_5324893718 147059908_5324893707_1602519143_5324893707 147059908_5324893707_1602519143_5324893718 147059908_5324893707_1602519143_5324893717 147059908_5324893707_1602519143_1602519257 147059908_5324893707_1602519143_1602519195 147059908_5324893707_1602519143_1602519175 147059908_5324893707_1602519143_1602519321 147059908_5324893707_1602519143_1602519379 147059908_1602519143_1602519380_1602519143 147046432_1602519380_5324786800_1602519380 147046432_1602519380_5324786800_5324786812 147046432_1602519380_5324786800_5324786811 147046432_1602519380_5324786800_5324786814 147046432_1602519380_5324786800_5324786813 147046432_1602519380_5324786800_5324786815 147046425_5324786800_1602419114_5324786800 147046425_5324786800_1602419114_5324786795 147711874_1602419114_1609101303_1602419114 147711890_1609101303_1602419189_1609101303 147711890_1609101303_1602419189_5227331201 147711890_1609101303_1602419189_5324786797 147711890_1609101303_1602419189_1609101266 147046520_1602419189_1602419248_1602419189 147046520_1602419189_1602419248_1602419326 147046520_1602419189_1602419248_1602419271 808910984_1602419248_1602419348_1602419248 808910983_1602419348_5321490950_1602419348 808910983_1602419348_5321490950_1602419342 808910983_1602419348_5321490950_1602419169 808910983_1602419348_5321490950_1602419424 147046548_5321490950_1602368252_5321490950 147046548_5321490950_1602368252_1609101259 147046548_5321490950_1602368252_4879934674 147046548_5321490950_1602368252_4964291812 147046548_5321490950_1602368252_5227331205 147046548_5321490950_1602368252_5324871206 147046548_5321490950_1602368252_5324871207 147046548_5321490950_1602368252_1609101283 147046548_5321490950_1602368252_5324871210 147046548_5321490950_1602368252_5324871209 147046548_5321490950_1602368252_5324871211 147040376_1602368252_5324871212_1602368252 147040376_1602368252_5324871212_1602368140 147040376_1602368252_5324871212_1602368605 147040376_1602368252_5324871212_1602368580 147040376_1602368252_5324871212_5324779203 147040376_1602368252_5324871212_1602368053 147040376_1602368252_5324871212_1602368734 551060299_5324871212_1602368044_5324871212 551060299_5324871212_1602368044_5324871213 551060299_5324871212_1602368044_5321999682 551060299_5324871212_1602368044_1609101287 551060299_5324871212_1602368044_5321999684 551060299_5324871212_1602368044_5321999683 551060299_5324871212_1602368044_5227331209 551060299_5324871212_1602368044_1609101300 551060299_5324871212_1602368044_5321999681 551060299_5324871212_1602368044_1609101337 551060299_5324871212_1602368044_1609101339 147711856_1602368044_1602367987_1602368044 147711856_1602367987_1602368104_1602367987 147711856_1602367987_1602368104_1609101331 147711856_1602367987_1602368104_1609101333 147711856_1602368104_1602368502_1602368104 147711856_1602368104_1602368502_1602368336 147711856_1602368104_1602368502_1602368636 147711856_1602368104_1602368502_1602368545 147711856_1602368104_1602368502_1602368581 147711861_1602368502_1609101376_1602368502 33082049_1609101376_373316268_1609101376 33082049_1609101376_373316268_1609101377 33082049_1609101376_373316268_1609101378 33082049_1609101376_373316268_5413536780 33082049_1609101376_373316268_5262782978 33082049_1609101376_373316268_373316275 33082049_1609101376_373316268_5262782977 33082049_373316268_1609101376_373316268 33082049_373316268_1609101376_5262782977 33082049_373316268_1609101376_373316275 33082049_373316268_1609101376_5262782978" />
	<route id="2" edges="147059908_1602519143_5324893707_1602519379 147059908_1602519143_5324893707_1602519321 147059908_1602519143_5324893707_1602519175 147059908_1602519143_5324893707_1602519195 147059908_1602519143_5324893707_1602519257 147059908_1602519143_5324893707_5324893717 147059908_1602519143_5324893707_5324893718 147059908_5324893707_1602519143_5324893707 147059908_5324893707_1602519143_5324893718 147059908_5324893707_1602519143_5324893717 147059908_5324893707_1602519143_1602519257 147059908_5324893707_1602519143_1602519195 147059908_5324893707_1602519143_1602519175 147059908_5324893707_1602519143_1602519321 147059908_5324893707_1602519143_1602519379 147059908_1602519143_1602519380_1602519143 147046432_1602519380_5324786800_1602519380 147046432_1602519380_5324786800_5324786812 147046432_1602519380_5324786800_5324786811 147046432_1602519380_5324786800_5324786814 147046432_1602519380_5324786800_5324786813 147046432_1602519380_5324786800_5324786815 147046425_5324786800_1602419114_5324786800 147046425_5324786800_1602419114_5324786795 147711874_1602419114_1609101303_1602419114 147711890_1609101303_1602419189_1609101303 147711890_1609101303_1602419189_5227331201 147711890_1609101303_1602419189_5324786797 147711890_1609101303_1602419189_1609101266 147046520_1602419189_1602419248_1602419189 147046520_1602419189_1602419248_1602419326 147046520_1602419189_1602419248_1602419271 808910984_1602419248_1602419348_1602419248 808910983_1602419348_5321490950_1602419348 808910983_1602419348_5321490950_1602419342 808910983_1602419348_5321490950_1602419169 808910983_1602419348_5321490950_1602419424 147046548_5321490950_1602368252_5321490950 147046548_5321490950_1602368252_1609101259 147046548_5321490950_1602368252_4879934674 147046548_5321490950_1602368252_4964291812 147046548_5321490950_1602368252_5227331205 147046548_5321490950_1602368252_5324871206 147046548_5321490950_1602368252_5324871207 147046548_5321490950_1602368252_1609101283 147046548_5321490950_1602368252_5324871210 147046548_5321490950_1602368252_5324871209 147046548_5321490950_1602368252_5324871211 147040376_1602368252_5324871212_1602368252 147040376_1602368252_5324871212_1602368140 147040376_1602368252_5324871212_1602368605 147040376_1602368252_5324871212_1602368580 147040376_1602368252_5324871212_5324779203 147040376_1602368252_5324871212_1602368053 147040376_1602368252_5324871212_1602368734 551060299_5324871212_1602368044_5324871212 551060299_5324871212_1602368044_5324871213 551060299_5324871212_1602368044_5321999682 551060299_5324871212_1602368044_1609101287 551060299_5324871212_1602368044_5321999684 551060299_5324871212_1602368044_5321999683 551060299_5324871212_1602368044_5227331209 551060299_5324871212_1602368044_1609101300 551060299_5324871212_1602368044_5321999681 551060299_5324871212_1602368044_1609101337 551060299_5324871212_1602368044_1609101339 147711856_1602368044_1602367987_1602368044 147046478_1602367987_1602367989_1602367987 147046478_1602367987_1602367989_1609101330 147711854_1602367989_1258708741_1602367989 147711854_1602367989_1258708741_2308910728 147711854_1602367989_1258708741_5764531777 221910032_1258708741_373316282_1258708741 221910032_1258708741_373316282_2308910680 221910032_1258708741_373316282_2308910667 221910032_1258708741_373316282_2308910656 221910032_1258708741_373316282_2308910648 221910032_1258708741_373316282_1680719564 221910028_373316282_2947828163_373316282 221910028_373316282_2947828163_373316286" />
	<route id="3" edges="33082049_373316268_1609101376_5262782978 33082049_373316268_1609101376_5413536780 33082049_373316268_1609101376_1609101378 33082049_373316268_1609101376_1609101377 147711863_1609101376_1602368049_1609101376 147711856_1602368049_1602368634_1602368049 147711856_1602368049_1602368634_1609101352 147711856_1602368634_1602368044_1602368634 147711856_1602368634_1602368044_1602368753 147711856_1602368044_1602367987_1602368044 147046478_1602367987_1602367989_1602367987 147046478_1602367987_1602367989_1609101330 147711854_1602367989_1258708741_1602367989 147711854_1602367989_1258708741_2308910728 147711854_1602367989_1258708741_5764531777 221910032_1258708741_373316282_1258708741 221910032_1258708741_373316282_2308910680 221910032_1258708741_373316282_2308910667 221910032_1258708741_373316282_2308910656 221910032_1258708741_373316282_2308910648 221910032_1258708741_373316282_1680719564 221910028_373316282_2947828163_373316282 221910028_373316282_2947828163_373316286" />
	<route id="4" edges="221910028_2947828163_373316282_2947828163 221910028_2947828163_373316282_373316286 221910031_373316282_1258708741_373316282 221910031_373316282_1258708741_2308910640 221910031_373316282_1258708741_2308910644 221910031_373316282_1258708741_2308910650 221910031_373316282_1258708741_3592850911 221910031_373316282_1258708741_2308910660 221910031_373316282_1258708741_2308910674 147711854_1258708741_1602367989_1258708741 147711854_1258708741_1602367989_5764531777 147711854_1258708741_1602367989_2308910728 147046478_1602367989_1602368104_1602367989 147046478_1602367989_1602368104_1609101310 147711856_1602368104_1602368502_1602368104 147711856_1602368104_1602368502_1602368336 147711856_1602368104_1602368502_1602368636 147711856_1602368104_1602368502_1602368545 147711856_1602368104_1602368502_1602368581 147711861_1602368502_1609101376_1602368502 33082049_1609101376_373316268_1609101376 33082049_1609101376_373316268_1609101377 33082049_1609101376_373316268_1609101378 33082049_1609101376_373316268_5413536780 33082049_1609101376_373316268_5262782978 33082049_1609101376_373316268_373316275 33082049_1609101376_373316268_5262782977 33082049_373316268_1609101376_373316268 33082049_373316268_1609101376_5262782977 33082049_373316268_1609101376_373316275" />
</routes>