<connections>
	<connection from="147711856_1602368502_1602368049_1602368502" to="147711856_1602368502_1602368049_1609101355" />
	<connection from="147711856_1602368502_1602368049_1609101355" to="147711856_1602368502_1602368049_1602368748" />
	<connection from="147711856_1602368502_1602368049_1602368748" to="147711856_1602368049_1602368634_1602368049" />
	<connection from="147059908_1602519143_1602519380_1602519143" to="147046432_1602519380_5324786800_1602519380" />
	<connection from="147059908_1602519143_1602519380_1602519143" to="147059908_1602519380_1602519143_1602519380" />
	<connection from="147059952_1602519080_1602519293_1602519080" to="552381988_1602519293_1602519308_1602519293" />
	<connection from="147059952_1602519080_1602519293_1602519080" to="147059952_1602519293_1602519080_1602519293" />
	<connection from="147059952_1602519080_1602519293_1602519080" to="552381988_1602519293_1602519274_1602519293" />
	<connection from="147059908_5324893707_1602519143_5324893707" to="147059908_5324893707_1602519143_5324893718" />
	<connection from="147059908_5324893707_1602519143_5324893718" to="147059908_5324893707_1602519143_5324893717" />
	<connection from="147059908_5324893707_1602519143_5324893717" to="147059908_5324893707_1602519143_1602519257" />
	<connection from="147059908_5324893707_1602519143_1602519257" to="147059908_5324893707_1602519143_1602519195" />
	<connection from="147059908_5324893707_1602519143_1602519195" to="147059908_5324893707_1602519143_1602519175" />
	<connection from="147059908_5324893707_1602519143_1602519175" to="147059908_5324893707_1602519143_1602519321" />
	<connection from="147059908_5324893707_1602519143_1602519321" to="147059908_5324893707_1602519143_1602519379" />
	<connection from="147059908_5324893707_1602519143_1602519379" to="552381986_1602519143_1602519274_1602519143" />
	<connection from="147059908_5324893707_1602519143_1602519379" to="147059908_1602519143_1602519380_1602519143" />
	<connection from="147059908_5324893707_1602519143_1602519379" to="147059908_1602519143_5324893707_1602519143" />
	<connection from="147059908_1602519380_1602519143_1602519380" to="552381986_1602519143_1602519274_1602519143" />
	<connection from="147059908_1602519380_1602519143_1602519380" to="147059908_1602519143_1602519380_1602519143" />
	<connection from="147059908_1602519380_1602519143_1602519380" to="147059908_1602519143_5324893707_1602519143" />
	<connection from="552381988_1602519293_1602519274_1602519293" to="552381986_1602519274_1602519269_1602519274" />
	<connection from="552381988_1602519293_1602519274_1602519293" to="552381988_1602519274_1602519293_1602519274" />
	<connection from="552381988_1602519293_1602519274_1602519293" to="552381986_1602519274_1602519143_1602519274" />
	<connection from="808910983_1602419331_1602419211_1602419331" to="808910983_1602419331_1602419211_1602419291" />
	<connection from="808910983_1602419331_1602419211_1602419291" to="147046520_1602419211_1602419189_1602419211" />
	<connection from="808910983_1602419331_1602419211_1602419291" to="147046488_1602419211_1609101304_1602419211" />
	<connection from="147711881_1602419460_5324786800_1602419460" to="147046425_5324786800_1602419114_5324786800" />
	<connection from="147711881_1602419460_5324786800_1602419460" to="147046432_5324786800_1602519380_5324786800" />
	<connection from="147046432_5324786800_1602519380_5324786800" to="147046432_5324786800_1602519380_5324786815" />
	<connection from="147046432_5324786800_1602519380_5324786815" to="147046432_5324786800_1602519380_5324786813" />
	<connection from="147046432_5324786800_1602519380_5324786813" to="147046432_5324786800_1602519380_5324786814" />
	<connection from="147046432_5324786800_1602519380_5324786814" to="147046432_5324786800_1602519380_5324786811" />
	<connection from="147046432_5324786800_1602519380_5324786811" to="147046432_5324786800_1602519380_5324786812" />
	<connection from="147046432_5324786800_1602519380_5324786812" to="147046432_1602519380_5324786800_1602519380" />
	<connection from="147046432_5324786800_1602519380_5324786812" to="147059908_1602519380_1602519143_1602519380" />
	<connection from="147059917_1602519080_1602519269_1602519080" to="552381986_1602519269_1602519205_1602519269" />
	<connection from="147059917_1602519080_1602519269_1602519080" to="552381986_1602519269_1602519274_1602519269" />
	<connection from="147711856_1602368634_1602368044_1602368634" to="147711856_1602368634_1602368044_1602368753" />
	<connection from="147711856_1602368634_1602368044_1602368753" to="147711856_1602368044_1602367987_1602368044" />
	<connection from="551060299_5324871212_1602368044_5324871212" to="551060299_5324871212_1602368044_5324871213" />
	<connection from="551060299_5324871212_1602368044_5324871213" to="551060299_5324871212_1602368044_5321999682" />
	<connection from="551060299_5324871212_1602368044_5321999682" to="551060299_5324871212_1602368044_1609101287" />
	<connection from="551060299_5324871212_1602368044_1609101287" to="551060299_5324871212_1602368044_5321999684" />
	<connection from="551060299_5324871212_1602368044_5321999684" to="551060299_5324871212_1602368044_5321999683" />
	<connection from="551060299_5324871212_1602368044_5321999683" to="551060299_5324871212_1602368044_5227331209" />
	<connection from="551060299_5324871212_1602368044_5227331209" to="551060299_5324871212_1602368044_1609101300" />
	<connection from="551060299_5324871212_1602368044_1609101300" to="551060299_5324871212_1602368044_5321999681" />
	<connection from="551060299_5324871212_1602368044_5321999681" to="551060299_5324871212_1602368044_1609101337" />
	<connection from="551060299_5324871212_1602368044_1609101337" to="551060299_5324871212_1602368044_1609101339" />
	<connection from="551060299_5324871212_1602368044_1609101339" to="147711856_1602368044_1602367987_1602368044" />
	<connection from="552381986_1602519269_1602519205_1602519269" to="552381987_1602519205_5333204885_1602519205" />
	<connection from="552381986_1602519269_1602519205_1602519269" to="552381986_1602519205_5333244400_1602519205" />
	<connection from="552381986_1602519269_1602519205_1602519269" to="552381986_1602519205_1602519269_1602519205" />
	<connection from="552381986_1602519269_1602519205_1602519269" to="552381987_1602519205_1602519356_1602519205" />
	<connection from="147711854_1258708741_1602367989_1258708741" to="147711854_1258708741_1602367989_5764531777" />
	<connection from="147711854_1258708741_1602367989_5764531777" to="147711854_1258708741_1602367989_2308910728" />
	<connection from="147711854_1258708741_1602367989_2308910728" to="147046478_1602367989_1602368104_1602367989" />
	<connection from="147711854_1258708741_1602367989_2308910728" to="147711854_1602367989_1258708741_1602367989" />
	<connection from="552381986_1602519274_1602519269_1602519274" to="552381986_1602519269_1602519205_1602519269" />
	<connection from="552381986_1602519274_1602519269_1602519274" to="552381986_1602519269_1602519274_1602519269" />
	<connection from="147059967_1602519368_1602519304_1602519368" to="147059967_1602519304_1602519343_1602519304" />
	<connection from="147059967_1602519368_1602519304_1602519368" to="147059967_1602519304_1602519368_1602519304" />
	<connection from="147059967_1602519368_1602519304_1602519368" to="552381987_1602519304_1602519356_1602519304" />
	<connection from="147711856_1602368104_1602368502_1602368104" to="147711856_1602368104_1602368502_1602368336" />
	<connection from="147711856_1602368104_1602368502_1602368336" to="147711856_1602368104_1602368502_1602368636" />
	<connection from="147711856_1602368104_1602368502_1602368636" to="147711856_1602368104_1602368502_1602368545" />
	<connection from="147711856_1602368104_1602368502_1602368545" to="147711856_1602368104_1602368502_1602368581" />
	<connection from="147711856_1602368104_1602368502_1602368581" to="147711856_1602368502_1602368049_1602368502" />
	<connection from="147711856_1602368104_1602368502_1602368581" to="147711861_1602368502_1609101376_1602368502" />
	<connection from="147711861_1602368502_1609101376_1602368502" to="147711863_1609101376_1602368049_1609101376" />
	<connection from="147711861_1602368502_1609101376_1602368502" to="33082049_1609101376_373316268_1609101376" />
	<connection from="147046425_5324786800_1602419114_5324786800" to="147046425_5324786800_1602419114_5324786795" />
	<connection from="147046425_5324786800_1602419114_5324786795" to="147711874_1602419114_1609101303_1602419114" />
	<connection from="147046541_1602368634_1602368066_1602368634" to="147046541_1602368634_1602368066_1609101346" />
	<connection from="147046541_1602368634_1602368066_1609101346" to="147046541_1602368634_1602368066_1609101344" />
	<connection from="147046541_1602368634_1602368066_1609101344" to="147046541_1602368634_1602368066_5321490947" />
	<connection from="147046541_1602368634_1602368066_5321490947" to="147046541_1602368634_1602368066_5227331208" />
	<connection from="147046541_1602368634_1602368066_5227331208" to="147046541_1602368634_1602368066_5321999685" />
	<connection from="147046541_1602368634_1602368066_5321999685" to="147046541_1602368634_1602368066_5321999686" />
	<connection from="147046541_1602368634_1602368066_5321999686" to="147046541_1602368634_1602368066_5321999688" />
	<connection from="147046541_1602368634_1602368066_5321999688" to="147046541_1602368634_1602368066_5321999689" />
	<connection from="147046541_1602368634_1602368066_5321999689" to="147046541_1602368634_1602368066_5324871214" />
	<connection from="147046541_1602368634_1602368066_5324871214" to="147046541_1602368634_1602368066_5321999690" />
	<connection from="147046541_1602368634_1602368066_5321999690" to="147040376_1602368066_1602368123_1602368066" />
	<connection from="147059908_1602519143_5324893707_1602519143" to="147059908_1602519143_5324893707_1602519379" />
	<connection from="147059908_1602519143_5324893707_1602519379" to="147059908_1602519143_5324893707_1602519321" />
	<connection from="147059908_1602519143_5324893707_1602519321" to="147059908_1602519143_5324893707_1602519175" />
	<connection from="147059908_1602519143_5324893707_1602519175" to="147059908_1602519143_5324893707_1602519195" />
	<connection from="147059908_1602519143_5324893707_1602519195" to="147059908_1602519143_5324893707_1602519257" />
	<connection from="147059908_1602519143_5324893707_1602519257" to="147059908_1602519143_5324893707_5324893717" />
	<connection from="147059908_1602519143_5324893707_5324893717" to="147059908_1602519143_5324893707_5324893718" />
	<connection from="147059908_1602519143_5324893707_5324893718" to="147059908_5324893707_1602519143_5324893707" />
	<connection from="221910032_1258708741_373316282_1258708741" to="221910032_1258708741_373316282_2308910680" />
	<connection from="221910032_1258708741_373316282_2308910680" to="221910032_1258708741_373316282_2308910667" />
	<connection from="221910032_1258708741_373316282_2308910667" to="221910032_1258708741_373316282_2308910656" />
	<connection from="221910032_1258708741_373316282_2308910656" to="221910032_1258708741_373316282_2308910648" />
	<connection from="221910032_1258708741_373316282_2308910648" to="221910032_1258708741_373316282_1680719564" />
	<connection from="221910032_1258708741_373316282_1680719564" to="221910028_373316282_2947828163_373316282" />
	<connection from="221910032_1258708741_373316282_1680719564" to="221910031_373316282_1258708741_373316282" />
	<connection from="147040376_5324779206_1602368252_5324779206" to="147040376_5324779206_1602368252_1602368337" />
	<connection from="147040376_5324779206_1602368252_1602368337" to="147040376_5324779206_1602368252_1602368068" />
	<connection from="147040376_5324779206_1602368252_1602368068" to="147040376_5324779206_1602368252_5324779202" />
	<connection from="147040376_5324779206_1602368252_5324779202" to="147040376_5324779206_1602368252_5324871208" />
	<connection from="147040376_5324779206_1602368252_5324871208" to="147040376_1602368252_5324871212_1602368252" />
	<connection from="147040376_1602368252_5324871212_1602368252" to="147040376_1602368252_5324871212_1602368140" />
	<connection from="147040376_1602368252_5324871212_1602368140" to="147040376_1602368252_5324871212_1602368605" />
	<connection from="147040376_1602368252_5324871212_1602368605" to="147040376_1602368252_5324871212_1602368580" />
	<connection from="147040376_1602368252_5324871212_1602368580" to="147040376_1602368252_5324871212_5324779203" />
	<connection from="147040376_1602368252_5324871212_5324779203" to="147040376_1602368252_5324871212_1602368053" />
	<connection from="147040376_1602368252_5324871212_1602368053" to="147040376_1602368252_5324871212_1602368734" />
	<connection from="147040376_1602368252_5324871212_1602368734" to="551060299_5324871212_1602368044_5324871212" />
	<connection from="147040376_1602368252_5324871212_1602368734" to="147040376_5324871212_1602368066_5324871212" />
	<connection from="552381987_1602519356_1602519304_1602519356" to="147059967_1602519304_1602519343_1602519304" />
	<connection from="552381987_1602519356_1602519304_1602519356" to="147059967_1602519304_1602519368_1602519304" />
	<connection from="552381987_1602519356_1602519304_1602519356" to="552381987_1602519304_1602519356_1602519304" />
	<connection from="147711890_1609101303_1602419189_1609101303" to="147711890_1609101303_1602419189_5227331201" />
	<connection from="147711890_1609101303_1602419189_5227331201" to="147711890_1609101303_1602419189_5324786797" />
	<connection from="147711890_1609101303_1602419189_5324786797" to="147711890_1609101303_1602419189_1609101266" />
	<connection from="147711890_1609101303_1602419189_1609101266" to="147046520_1602419189_1602419248_1602419189" />
	<connection from="552381986_1602519205_5333244400_1602519205" to="552381986_1602519205_5333244400_1602519169" />
	<connection from="552381986_1602519205_5333244400_1602519169" to="552381986_1602519205_5333244400_1602519392" />
	<connection from="552381986_1602519205_5333244400_1602519392" to="552381986_1602519205_5333244400_1602519106" />
	<connection from="552381986_1602519205_5333244400_1602519106" to="552381986_1602519205_5333244400_1602519140" />
	<connection from="552381986_1602519205_5333244400_1602519140" to="552381986_1602519205_5333244400_5333244403" />
	<connection from="552381986_1602519205_5333244400_5333244403" to="552381986_1602519205_5333244400_5333244404" />
	<connection from="552381986_1602519205_5333244400_5333244404" to="552381986_1602519205_5333244400_5333244402" />
	<connection from="552381986_1602519205_5333244400_5333244402" to="552381986_5333244400_1602519205_5333244400" />
	<connection from="552381987_5333204885_1602519205_5333204885" to="552381987_1602519205_5333204885_1602519205" />
	<connection from="552381987_5333204885_1602519205_5333204885" to="552381986_1602519205_5333244400_1602519205" />
	<connection from="552381987_5333204885_1602519205_5333204885" to="552381986_1602519205_1602519269_1602519205" />
	<connection from="552381987_5333204885_1602519205_5333204885" to="552381987_1602519205_1602519356_1602519205" />
	<connection from="552381988_1602519274_1602519293_1602519274" to="552381988_1602519293_1602519308_1602519293" />
	<connection from="552381988_1602519274_1602519293_1602519274" to="147059952_1602519293_1602519080_1602519293" />
	<connection from="552381988_1602519274_1602519293_1602519274" to="552381988_1602519293_1602519274_1602519293" />
	<connection from="551361826_5324779206_1602419331_5324779206" to="551361826_5324779206_1602419331_5324871205" />
	<connection from="551361826_5324779206_1602419331_5324871205" to="551361826_5324779206_1602419331_5324871204" />
	<connection from="551361826_5324779206_1602419331_5324871204" to="551361826_5324779206_1602419331_5324871203" />
	<connection from="551361826_5324779206_1602419331_5324871203" to="551361826_5324779206_1602419331_5324871202" />
	<connection from="551361826_5324779206_1602419331_5324871202" to="551361826_5324779206_1602419331_5324871201" />
	<connection from="551361826_5324779206_1602419331_5324871201" to="551361826_5324779206_1602419331_5324871200" />
	<connection from="551361826_5324779206_1602419331_5324871200" to="551361826_5324779206_1602419331_1609101290" />
	<connection from="551361826_5324779206_1602419331_1609101290" to="551361826_5324779206_1602419331_4879934675" />
	<connection from="551361826_5324779206_1602419331_4879934675" to="551361826_5324779206_1602419331_1609101264" />
	<connection from="551361826_5324779206_1602419331_1609101264" to="808910983_1602419331_1602419211_1602419331" />
	<connection from="147059952_1602519333_1602519356_1602519333" to="147059952_1602519356_1602519080_1602519356" />
	<connection from="147059952_1602519333_1602519356_1602519333" to="552381987_1602519356_1602519304_1602519356" />
	<connection from="147059952_1602519333_1602519356_1602519333" to="552381987_1602519356_1602519205_1602519356" />
	<connection from="147059952_1602519333_1602519356_1602519333" to="147059952_1602519356_1602519333_1602519356" />
	<connection from="147059967_1602519304_1602519343_1602519304" to="147059967_1602519343_1602519304_1602519343" />
	<connection from="147046432_1602519380_5324786800_1602519380" to="147046432_1602519380_5324786800_5324786812" />
	<connection from="147046432_1602519380_5324786800_5324786812" to="147046432_1602519380_5324786800_5324786811" />
	<connection from="147046432_1602519380_5324786800_5324786811" to="147046432_1602519380_5324786800_5324786814" />
	<connection from="147046432_1602519380_5324786800_5324786814" to="147046432_1602519380_5324786800_5324786813" />
	<connection from="147046432_1602519380_5324786800_5324786813" to="147046432_1602519380_5324786800_5324786815" />
	<connection from="147046432_1602519380_5324786800_5324786815" to="147046425_5324786800_1602419114_5324786800" />
	<connection from="147046432_1602519380_5324786800_5324786815" to="147046432_5324786800_1602519380_5324786800" />
	<connection from="147711863_1609101376_1602368049_1609101376" to="147711856_1602368049_1602368634_1602368049" />
	<connection from="552385091_1602519341_5333204885_1602519341" to="552385091_1602519341_5333204885_1602519263" />
	<connection from="552385091_1602519341_5333204885_1602519263" to="552381987_5333204885_1602519205_5333204885" />
	<connection from="552385091_1602519341_5333204885_1602519263" to="552385091_5333204885_1602519341_5333204885" />
	<connection from="552385091_1602519341_5333204885_1602519263" to="552385091_5333204885_1602519242_5333204885" />
	<connection from="147059967_1602519368_1602519308_1602519368" to="552381988_1602519308_1602519293_1602519308" />
	<connection from="147059967_1602519368_1602519308_1602519368" to="147059967_1602519308_1602519368_1602519308" />
	<connection from="147059967_1602519308_1602519368_1602519308" to="147059917_1602519368_1602519080_1602519368" />
	<connection from="147059967_1602519308_1602519368_1602519308" to="147059967_1602519368_1602519304_1602519368" />
	<connection from="147059967_1602519308_1602519368_1602519308" to="147059967_1602519368_1602519308_1602519368" />
	<connection from="147711856_1602368044_1602367987_1602368044" to="147711856_1602367987_1602368104_1602367987" />
	<connection from="147711856_1602368044_1602367987_1602368044" to="147046478_1602367987_1602367989_1602367987" />
	<connection from="147711856_1602367987_1602368104_1602367987" to="147711856_1602367987_1602368104_1609101331" />
	<connection from="147711856_1602367987_1602368104_1609101331" to="147711856_1602367987_1602368104_1609101333" />
	<connection from="147711856_1602367987_1602368104_1609101333" to="147711856_1602368104_1602368502_1602368104" />
	<connection from="147046520_1602419211_1602419189_1602419211" to="147046520_1602419211_1602419189_1602419270" />
	<connection from="147046520_1602419211_1602419189_1602419270" to="147046520_1602419211_1602419189_1602419490" />
	<connection from="147046520_1602419211_1602419189_1602419490" to="147046520_1602419211_1602419189_1602419129" />
	<connection from="147046520_1602419211_1602419189_1602419129" to="147046520_1602419189_1602419248_1602419189" />
	<connection from="147059952_1602519080_1602519356_1602519080" to="147059952_1602519356_1602519080_1602519356" />
	<connection from="147059952_1602519080_1602519356_1602519080" to="552381987_1602519356_1602519304_1602519356" />
	<connection from="147059952_1602519080_1602519356_1602519080" to="552381987_1602519356_1602519205_1602519356" />
	<connection from="147059952_1602519080_1602519356_1602519080" to="147059952_1602519356_1602519333_1602519356" />
	<connection from="147040376_1602368066_1602368123_1602368066" to="147040376_1602368123_5324779206_1602368123" />
	<connection from="147059967_1602519343_1602519304_1602519343" to="147059967_1602519304_1602519343_1602519304" />
	<connection from="147059967_1602519343_1602519304_1602519343" to="147059967_1602519304_1602519368_1602519304" />
	<connection from="147059967_1602519343_1602519304_1602519343" to="552381987_1602519304_1602519356_1602519304" />
	<connection from="147040376_5324871212_1602368066_5324871212" to="147040376_5324871212_1602368066_1602367978" />
	<connection from="147040376_5324871212_1602368066_1602367978" to="147040376_5324871212_1602368066_1602368201" />
	<connection from="147040376_5324871212_1602368066_1602368201" to="147040376_5324871212_1602368066_1602368181" />
	<connection from="147040376_5324871212_1602368066_1602368181" to="147040376_5324871212_1602368066_5324779205" />
	<connection from="147040376_5324871212_1602368066_5324779205" to="147040376_1602368066_1602368123_1602368066" />
	<connection from="552385091_5333204885_1602519341_5333204885" to="552385091_5333204885_1602519341_1602519263" />
	<connection from="552385091_5333204885_1602519341_1602519263" to="552385091_1602519341_5333204885_1602519341" />
	<connection from="552385091_1602519242_5333204885_1602519242" to="552381987_5333204885_1602519205_5333204885" />
	<connection from="552385091_1602519242_5333204885_1602519242" to="552385091_5333204885_1602519341_5333204885" />
	<connection from="552385091_1602519242_5333204885_1602519242" to="552385091_5333204885_1602519242_5333204885" />
	<connection from="33082049_1609101376_373316268_1609101376" to="33082049_1609101376_373316268_1609101377" />
	<connection from="33082049_1609101376_373316268_1609101377" to="33082049_1609101376_373316268_1609101378" />
	<connection from="33082049_1609101376_373316268_1609101378" to="33082049_1609101376_373316268_5413536780" />
	<connection from="33082049_1609101376_373316268_5413536780" to="33082049_1609101376_373316268_5262782978" />
	<connection from="33082049_1609101376_373316268_5262782978" to="33082049_1609101376_373316268_373316275" />
	<connection from="33082049_1609101376_373316268_373316275" to="33082049_1609101376_373316268_5262782977" />
	<connection from="33082049_1609101376_373316268_5262782977" to="33082049_373316268_1609101376_373316268" />
	<connection from="147059952_1602519356_1602519333_1602519356" to="147059952_1602519333_1602519356_1602519333" />
	<connection from="221910028_2947828163_373316282_2947828163" to="221910028_2947828163_373316282_373316286" />
	<connection from="221910028_2947828163_373316282_373316286" to="221910028_373316282_2947828163_373316282" />
	<connection from="221910028_2947828163_373316282_373316286" to="221910031_373316282_1258708741_373316282" />
	<connection from="147059952_1602519356_1602519080_1602519356" to="147059952_1602519080_1602519356_1602519080" />
	<connection from="147059952_1602519356_1602519080_1602519356" to="147059952_1602519080_1602519293_1602519080" />
	<connection from="147059952_1602519356_1602519080_1602519356" to="147059917_1602519080_1602519269_1602519080" />
	<connection from="808910983_5321490950_1602419331_5321490950" to="808910983_5321490950_1602419331_2308910826" />
	<connection from="808910983_5321490950_1602419331_2308910826" to="808910983_1602419331_1602419211_1602419331" />
	<connection from="147040376_1602368123_5324779206_1602368123" to="147040376_1602368123_5324779206_1602368521" />
	<connection from="147040376_1602368123_5324779206_1602368521" to="147040376_1602368123_5324779206_1602368699" />
	<connection from="147040376_1602368123_5324779206_1602368699" to="147040376_1602368123_5324779206_1602368161" />
	<connection from="147040376_1602368123_5324779206_1602368161" to="551361826_5324779206_1602419331_5324779206" />
	<connection from="147040376_1602368123_5324779206_1602368161" to="147040376_5324779206_1602368252_5324779206" />
	<connection from="147711856_1602368049_1602368634_1602368049" to="147711856_1602368049_1602368634_1609101352" />
	<connection from="147711856_1602368049_1602368634_1609101352" to="147046541_1602368634_1602368066_1602368634" />
	<connection from="147711856_1602368049_1602368634_1609101352" to="147711856_1602368634_1602368044_1602368634" />
	<connection from="147046520_1602419189_1602419248_1602419189" to="147046520_1602419189_1602419248_1602419326" />
	<connection from="147046520_1602419189_1602419248_1602419326" to="147046520_1602419189_1602419248_1602419271" />
	<connection from="147046520_1602419189_1602419248_1602419271" to="808910984_1602419248_1602419348_1602419248" />
	<connection from="552381987_1602519205_1602519356_1602519205" to="147059952_1602519356_1602519080_1602519356" />
	<connection from="552381987_1602519205_1602519356_1602519205" to="552381987_1602519356_1602519304_1602519356" />
	<connection from="552381987_1602519205_1602519356_1602519205" to="552381987_1602519356_1602519205_1602519356" />
	<connection from="552381987_1602519205_1602519356_1602519205" to="147059952_1602519356_1602519333_1602519356" />
	<connection from="221910031_373316282_1258708741_373316282" to="221910031_373316282_1258708741_2308910640" />
	<connection from="221910031_373316282_1258708741_2308910640" to="221910031_373316282_1258708741_2308910644" />
	<connection from="221910031_373316282_1258708741_2308910644" to="221910031_373316282_1258708741_2308910650" />
	<connection from="221910031_373316282_1258708741_2308910650" to="221910031_373316282_1258708741_3592850911" />
	<connection from="221910031_373316282_1258708741_3592850911" to="221910031_373316282_1258708741_2308910660" />
	<connection from="221910031_373316282_1258708741_2308910660" to="221910031_373316282_1258708741_2308910674" />
	<connection from="221910031_373316282_1258708741_2308910674" to="147711854_1258708741_1602367989_1258708741" />
	<connection from="221910031_373316282_1258708741_2308910674" to="221910032_1258708741_373316282_1258708741" />
	<connection from="552381988_1602519293_1602519308_1602519293" to="552381988_1602519308_1602519293_1602519308" />
	<connection from="552381988_1602519293_1602519308_1602519293" to="147059967_1602519308_1602519368_1602519308" />
	<connection from="552381986_1602519143_1602519274_1602519143" to="552381986_1602519274_1602519269_1602519274" />
	<connection from="552381986_1602519143_1602519274_1602519143" to="552381988_1602519274_1602519293_1602519274" />
	<connection from="552381986_1602519143_1602519274_1602519143" to="552381986_1602519274_1602519143_1602519274" />
	<connection from="552381987_1602519205_5333204885_1602519205" to="552381987_5333204885_1602519205_5333204885" />
	<connection from="552381987_1602519205_5333204885_1602519205" to="552385091_5333204885_1602519341_5333204885" />
	<connection from="552381987_1602519205_5333204885_1602519205" to="552385091_5333204885_1602519242_5333204885" />
	<connection from="552381987_1602519356_1602519205_1602519356" to="552381987_1602519205_5333204885_1602519205" />
	<connection from="552381987_1602519356_1602519205_1602519356" to="552381986_1602519205_5333244400_1602519205" />
	<connection from="552381987_1602519356_1602519205_1602519356" to="552381986_1602519205_1602519269_1602519205" />
	<connection from="552381987_1602519356_1602519205_1602519356" to="552381987_1602519205_1602519356_1602519205" />
	<connection from="552381986_1602519205_1602519269_1602519205" to="552381986_1602519269_1602519205_1602519269" />
	<connection from="552381986_1602519205_1602519269_1602519205" to="552381986_1602519269_1602519274_1602519269" />
	<connection from="147046488_1602419211_1609101304_1602419211" to="147046488_1602419211_1609101304_1609101278" />
	<connection from="147046488_1602419211_1609101304_1609101278" to="147046488_1602419211_1609101304_5324786798" />
	<connection from="147046488_1602419211_1609101304_5324786798" to="147046488_1602419211_1609101304_5227331202" />
	<connection from="147046488_1602419211_1609101304_5227331202" to="147711880_1609101304_1602419460_1609101304" />
	<connection from="552381986_1602519274_1602519143_1602519274" to="552381986_1602519143_1602519274_1602519143" />
	<connection from="552381986_1602519274_1602519143_1602519274" to="147059908_1602519143_1602519380_1602519143" />
	<connection from="552381986_1602519274_1602519143_1602519274" to="147059908_1602519143_5324893707_1602519143" />
	<connection from="147059967_1602519304_1602519368_1602519304" to="147059917_1602519368_1602519080_1602519368" />
	<connection from="147059967_1602519304_1602519368_1602519304" to="147059967_1602519368_1602519304_1602519368" />
	<connection from="147059967_1602519304_1602519368_1602519304" to="147059967_1602519368_1602519308_1602519368" />
	<connection from="552381987_1602519304_1602519356_1602519304" to="147059952_1602519356_1602519080_1602519356" />
	<connection from="552381987_1602519304_1602519356_1602519304" to="552381987_1602519356_1602519304_1602519356" />
	<connection from="552381987_1602519304_1602519356_1602519304" to="552381987_1602519356_1602519205_1602519356" />
	<connection from="552381987_1602519304_1602519356_1602519304" to="147059952_1602519356_1602519333_1602519356" />
	<connection from="552381986_5333244400_1602519205_5333244400" to="552381986_5333244400_1602519205_5333244402" />
	<connection from="552381986_5333244400_1602519205_5333244402" to="552381986_5333244400_1602519205_5333244404" />