<nodes>
	<node id="1602368545" x="597075.0120" y="4266576.4632" z="0.0000" type="priority" />
	<node id="1602367978" x="596313.5412" y="4266478.2322" z="0.0000" type="priority" />
	<node id="1602519308" x="595646.8407" y="4266754.3400" z="0.0000" type="priority" />
	<node id="1602519304" x="595559.1279" y="4266731.9292" z="0.0000" type="priority" />
	<node id="5333244404" x="595355.8566" y="4266538.8614" z="0.0000" type="priority" />
	<node id="5324893707" x="595573.3701" y="4267200.2468" z="0.0000" type="priority" />
	<node id="5333244403" x="595359.2559" y="4266538.8686" z="0.0000" type="priority" />
	<node id="2308910656" x="596990.8622" y="4265654.0610" z="0.0000" type="priority" />
	<node id="5333244402" x="595352.9197" y="4266539.5478" z="0.0000" type="priority" />
	<node id="1602519274" x="595681.1850" y="4266649.7159" z="0.0000" type="priority" />
	<node id="5333244400" x="595349.5757" y="4266541.4946" z="0.0000" type="priority" />
	<node id="1602519392" x="595459.6338" y="4266573.1699" z="0.0000" type="priority" />
	<node id="1609101355" x="597057.8570" y="4266595.9993" z="0.0000" type="priority" />
	<node id="1609101352" x="597033.2119" y="4266587.6989" z="0.0000" type="priority" />
	<node id="2308910650" x="596998.0091" y="4265644.8027" z="0.0000" type="priority" />
	<node id="1602419490" x="595853.0697" y="4266455.7857" z="0.0000" type="priority" />
	<node id="5333204885" x="595598.3895" y="4266589.8513" z="0.0000" type="priority" />
	<node id="1602367987" x="597037.4697" y="4266554.9660" z="0.0000" type="priority" />
	<node id="1602367989" x="597048.4983" y="4266520.2175" z="0.0000" type="priority" />
	<node id="2308910826" x="595887.0479" y="4266441.0875" z="0.0000" type="priority" />
	<node id="5262782977" x="597146.3510" y="4268097.5361" z="0.0000" type="priority" />
	<node id="5262782978" x="597143.2467" y="4268046.6790" z="0.0000" type="priority" />
	<node id="1602519269" x="595663.8068" y="4266643.7151" z="0.0000" type="priority" />
	<node id="5324893718" x="595606.9548" y="4267093.3271" z="0.0000" type="priority" />
	<node id="5413536780" x="597140.5355" y="4268003.6400" z="0.0000" type="priority" />
	<node id="1602419129" x="595846.8309" y="4266449.7846" z="0.0000" type="priority" />
	<node id="2308910667" x="596993.1179" y="4265684.4866" z="0.0000" type="priority" />
	<node id="5324893717" x="595620.0912" y="4267053.7409" z="0.0000" type="priority" />
	<node id="1602519263" x="595525.0160" y="4266564.2715" z="0.0000" type="priority" />
	<node id="1602368161" x="596277.5825" y="4266502.4605" z="0.0000" type="priority" />
	<node id="1602419248" x="595852.4300" y="4266418.9096" z="0.0000" type="priority" />
	<node id="1602519143" x="595746.9907" y="4266672.4544" z="0.0000" type="priority" />
	<node id="5321490947" x="596629.8500" y="4266528.9198" z="0.0000" type="priority" />
	<node id="1602519380" x="595757.8200" y="4266641.5087" z="0.0000" type="priority" />
	<node id="1602519140" x="595361.6128" y="4266539.3072" z="0.0000" type="priority" />
	<node id="2308910660" x="596999.0023" y="4265659.2537" z="0.0000" type="priority" />
	<node id="1609101337" x="597004.3998" y="4266565.0424" z="0.0000" type="priority" />
	<node id="1680719564" x="596986.7554" y="4265598.6640" z="0.0000" type="priority" />
	<node id="2308910680" x="596999.2711" y="4265767.4211" z="0.0000" type="priority" />
	<node id="1609101339" x="597018.6518" y="4266563.5391" z="0.0000" type="priority" />
	<node id="1602419169" x="595877.1465" y="4266418.4617" z="0.0000" type="priority" />
	<node id="1602368123" x="596299.0340" y="4266506.0478" z="0.0000" type="priority" />
	<node id="1602368521" x="596291.6190" y="4266507.2794" z="0.0000" type="priority" />
	<node id="4879934675" x="595914.7340" y="4266447.4119" z="0.0000" type="priority" />
	<node id="1602519257" x="595634.0322" y="4267011.7450" z="0.0000" type="priority" />
	<node id="1602519379" x="595730.5836" y="4266720.8800" z="0.0000" type="priority" />
	<node id="1609101290" x="596240.9734" y="4266485.0736" z="0.0000" type="priority" />
	<node id="373316268" x="597152.4822" y="4268201.3025" z="0.0000" type="priority" />
	<node id="2308910674" x="597004.0754" y="4265733.4740" z="0.0000" type="priority" />
	<node id="3592850911" x="596998.5946" y="4265653.3222" z="0.0000" type="priority" />
	<node id="1609101333" x="597054.7844" y="4266550.3146" z="0.0000" type="priority" />
	<node id="1609101330" x="597046.1794" y="4266541.1209" z="0.0000" type="priority" />
	<node id="1609101331" x="597045.6597" y="4266550.9255" z="0.0000" type="priority" />
	<node id="1602419271" x="595846.4023" y="4266425.1302" z="0.0000" type="priority" />
	<node id="1602419270" x="595861.1728" y="4266458.9680" z="0.0000" type="priority" />
	<node id="1609101346" x="597017.4502" y="4266574.9558" z="0.0000" type="priority" />
	<node id="1602368252" x="596274.7034" y="4266469.3197" z="0.0000" type="priority" />
	<node id="4879934674" x="595915.6341" y="4266439.2100" z="0.0000" type="priority" />
	<node id="2308910728" x="597022.6805" y="4266087.5360" z="0.0000" type="priority" />
	<node id="1602519368" x="595631.5209" y="4266750.4281" z="0.0000" type="priority" />
	<node id="1602419424" x="595883.4286" y="4266424.4967" z="0.0000" type="priority" />
	<node id="1602519242" x="595606.3318" y="4266592.6207" z="0.0000" type="priority" />
	<node id="1602368140" x="596278.1047" y="4266466.2530" z="0.0000" type="priority" />
	<node id="1609101344" x="597003.6037" y="4266571.7694" z="0.0000" type="priority" />
	<node id="1602519080" x="595651.0394" y="4266685.9137" z="0.0000" type="priority" />
	<node id="5324871202" x="596260.1976" y="4266488.3233" z="0.0000" type="priority" />
	<node id="5324871203" x="596264.0977" y="4266490.1791" z="0.0000" type="priority" />
	<node id="1602368502" x="597066.0733" y="4266591.9481" z="0.0000" type="priority" />
	<node id="5324871200" x="596249.2337" y="4266486.0385" z="0.0000" type="priority" />
	<node id="5324871201" x="596255.2461" y="4266486.9209" z="0.0000" type="priority" />
	<node id="5324871206" x="596248.6447" y="4266477.7410" z="0.0000" type="priority" />
	<node id="5324871207" x="596253.6592" y="4266478.2563" z="0.0000" type="priority" />
	<node id="1602368748" x="597048.7586" y="4266596.5994" z="0.0000" type="priority" />
	<node id="5324871204" x="596267.8566" y="4266492.8990" z="0.0000" type="priority" />
	<node id="5764531777" x="597006.3294" y="4265840.3782" z="0.0000" type="priority" />
	<node id="5324871205" x="596270.3529" y="4266494.7935" z="0.0000" type="priority" />
	<node id="1602368581" x="597072.0922" y="4266585.0845" z="0.0000" type="priority" />
	<node id="1602419189" x="595843.3607" y="4266441.8522" z="0.0000" type="priority" />
	<node id="5324871208" x="596271.9833" y="4266472.9938" z="0.0000" type="priority" />
	<node id="1602368066" x="596305.6491" y="4266502.4759" z="0.0000" type="priority" />
	<node id="5324779202" x="596269.6607" y="4266478.4041" z="0.0000" type="priority" />
	<node id="5324871209" x="596266.7341" y="4266475.3280" z="0.0000" type="priority" />
	<node id="1602419342" x="595869.0953" y="4266415.3134" z="0.0000" type="priority" />
	<node id="1602368068" x="596268.8150" y="4266484.2316" z="0.0000" type="priority" />
	<node id="1602519106" x="595405.8491" y="4266554.5834" z="0.0000" type="priority" />
	<node id="5324779203" x="596296.6300" y="4266462.3915" z="0.0000" type="priority" />
	<node id="1602419460" x="595810.4049" y="4266533.6183" z="0.0000" type="priority" />
	<node id="5324779206" x="596272.4974" y="4266496.9501" z="0.0000" type="priority" />
	<node id="1602368104" x="597063.4134" y="4266553.2048" z="0.0000" type="priority" />
	<node id="5324779205" x="596310.3100" y="4266497.5932" z="0.0000" type="priority" />
	<node id="373316282" x="596986.5013" y="4265521.6830" z="0.0000" type="priority" />
	<node id="1602519356" x="595577.7017" y="4266664.7287" z="0.0000" type="priority" />
	<node id="373316286" x="596969.5123" y="4265249.1804" z="0.0000" type="priority" />
	<node id="5227331201" x="595835.6430" y="4266477.8738" z="0.0000" type="priority" />
	<node id="5227331202" x="595842.7542" y="4266482.3537" z="0.0000" type="priority" />
	<node id="5227331205" x="596241.8136" y="4266476.8044" z="0.0000" type="priority" />
	<node id="1258708741" x="597004.8991" y="4265818.8301" z="0.0000" type="priority" />
	<node id="1602519195" x="595654.9802" y="4266948.6349" z="0.0000" type="priority" />
	<node id="5227331208" x="596340.3962" y="4266497.1003" z="0.0000" type="priority" />
	<node id="1609101310" x="597055.3239" y="4266541.0319" z="0.0000" type="priority" />
	<node id="5227331209" x="596341.2989" y="4266488.7209" z="0.0000" type="priority" />
	<node id="5324786800" x="595777.4537" y="4266586.4184" z="0.0000" type="priority" />
	<node id="5324871210" x="596262.7027" y="4266477.1441" z="0.0000" type="priority" />
	<node id="1609101278" x="595850.4986" y="4266469.6167" z="0.0000" type="priority" />
	<node id="5324871213" x="596315.0366" y="4266478.5499" z="0.0000" type="priority" />
	<node id="5324871214" x="596311.7202" y="4266498.4758" z="0.0000" type="priority" />
	<node id="1602368634" x="597029.1442" y="4266579.5479" z="0.0000" type="priority" />
	<node id="1602419291" x="595877.8294" y="4266455.3606" z="0.0000" type="priority" />
	<node id="5324871211" x="596271.0046" y="4266472.4716" z="0.0000" type="priority" />
	<node id="5324871212" x="596311.1569" y="4266472.8209" z="0.0000" type="priority" />
	<node id="1602368636" x="597074.3900" y="4266567.3772" z="0.0000" type="priority" />
	<node id="1602419211" x="595869.8300" y="4266458.8163" z="0.0000" type="priority" />
	<node id="1602419331" x="595883.8660" y="4266449.1290" z="0.0000" type="priority" />
	<node id="1602368753" x="597028.5309" y="4266570.4509" z="0.0000" type="priority" />
	<node id="1602519343" x="595512.8817" y="4266720.1130" z="0.0000" type="priority" />
	<node id="373316275" x="597144.8252" y="4268071.7250" z="0.0000" type="priority" />
	<node id="1602419326" x="595843.2115" y="4266433.1938" z="0.0000" type="priority" />
	<node id="1602519341" x="595386.4357" y="4266515.9634" z="0.0000" type="priority" />
	<node id="5324786814" x="595769.6875" y="4266602.4625" z="0.0000" type="priority" />
	<node id="5324786815" x="595774.5955" y="4266591.4561" z="0.0000" type="priority" />
	<node id="5324786812" x="595762.6742" y="4266624.7972" z="0.0000" type="priority" />
	<node id="5324786813" x="595772.0819" y="4266596.8421" z="0.0000" type="priority" />
	<node id="1609101283" x="596259.1438" y="4266478.0891" z="0.0000" type="priority" />
	<node id="5324786811" x="595768.0017" y="4266607.8583" z="0.0000" type="priority" />
	<node id="1609101287" x="596321.8533" y="4266484.3141" z="0.0000" type="priority" />
	<node id="1609101259" x="595901.5757" y="4266437.6544" z="0.0000" type="priority" />
	<node id="5324786795" x="595796.1408" y="4266539.8070" z="0.0000" type="priority" />
	<node id="1609101378" x="597099.5310" y="4267353.1451" z="0.0000" type="priority" />
	<node id="1602368605" x="596283.8158" y="4266463.2030" z="0.0000" type="priority" />
	<node id="2947828163" x="596888.4011" y="4263998.9753" z="0.0000" type="priority" />
	<node id="1602368044" x="597031.4595" y="4266561.8186" z="0.0000" type="priority" />
	<node id="1602368201" x="596314.4371" y="4266484.9131" z="0.0000" type="priority" />
	<node id="1602519205" x="595590.5278" y="4266618.3134" z="0.0000" type="priority" />
	<node id="1602368049" x="597040.0776" y="4266593.6864" z="0.0000" type="priority" />
	<node id="1602519333" x="595531.2563" y="4266651.3119" z="0.0000" type="priority" />
	<node id="1602519175" x="595664.8440" y="4266918.9205" z="0.0000" type="priority" />
	<node id="5321999690" x="596309.7986" y="4266499.5293" z="0.0000" type="priority" />
	<node id="1602519293" x="595667.7516" y="4266690.7413" z="0.0000" type="priority" />
	<node id="1609101376" x="597055.1146" y="4266618.7621" z="0.0000" type="priority" />
	<node id="1609101377" x="597077.0843" y="4266981.6555" z="0.0000" type="priority" />
	<node id="5321490950" x="595886.8987" y="4266432.4291" z="0.0000" type="priority" />
	<node id="1602368336" x="597070.3311" y="4266559.2152" z="0.0000" type="priority" />
	<node id="1602368699" x="596284.1989" y="4266506.0360" z="0.0000" type="priority" />
	<node id="1609101303" x="595815.3187" y="4266509.7491" z="0.0000" type="priority" />
	<node id="1602368337" x="596269.4943" y="4266490.0775" z="0.0000" type="priority" />
	<node id="1609101304" x="595822.5769" y="4266514.3307" z="0.0000" type="priority" />
	<node id="1602368734" x="596307.4558" y="4266468.1928" z="0.0000" type="priority" />
	<node id="4964291812" x="596195.7834" y="4266470.9023" z="0.0000" type="priority" />
	<node id="1602368053" x="596302.6865" y="4266464.6839" z="0.0000" type="priority" />
	<node id="1602419114" x="595803.0605" y="4266528.9580" z="0.0000" type="priority" />
	<node id="5321999682" x="596318.1392" y="4266481.4838" z="0.0000" type="priority" />
	<node id="1602519321" x="595694.4359" y="4266829.7774" z="0.0000" type="priority" />
	<node id="5321999683" x="596332.7165" y="4266487.7187" z="0.0000" type="priority" />
	<node id="1602519169" x="595516.8643" y="4266592.9521" z="0.0000" type="priority" />
	<node id="5321999684" x="596326.7426" y="4266486.5371" z="0.0000" type="priority" />
	<node id="5321999685" x="596332.7329" y="4266496.5088" z="0.0000" type="priority" />
	<node id="1602368181" x="596313.3287" y="4266491.5587" z="0.0000" type="priority" />
	<node id="1602419348" x="595860.4032" y="4266415.4646" z="0.0000" type="priority" />
	<node id="1602368580" x="596290.1598" y="4266461.8809" z="0.0000" type="priority" />
	<node id="5321999681" x="596991.2067" y="4266564.0392" z="0.0000" type="priority" />
	<node id="2308910648" x="596989.5365" y="4265636.0990" z="0.0000" type="priority" />
	<node id="2308910644" x="596996.6535" y="4265624.9980" z="0.0000" type="priority" />
	<node id="5321999686" x="596324.7552" y="4266495.9689" z="0.0000" type="priority" />
	<node id="1609101266" x="595842.8212" y="4266464.3642" z="0.0000" type="priority" />
	<node id="1609101300" x="596350.5167" y="4266489.7862" z="0.0000" type="priority" />
	<node id="5321999688" x="596320.6286" y="4266496.2745" z="0.0000" type="priority" />
	<node id="1609101264" x="595901.7983" y="4266446.0030" z="0.0000" type="priority" />
	<node id="5324786797" x="595840.3598" y="4266470.4832" z="0.0000" type="priority" />
	<node id="5321999689" x="596315.6875" y="4266496.9143" z="0.0000" type="priority" />
	<node id="2308910640" x="596994.8020" y="4265597.9068" z="0.0000" type="priority" />
	<node id="5324786798" x="595847.1789" y="4266475.3370" z="0.0000" type="priority" />
</nodes>
