<?xml version="1.0" ?>
<!-- Generated by VSimRTI -->
<routes>
	<vType id="default" length="7.5" maxSpeed="50" minGap="2.0" carFollowModel="Krauss" accel="0.80" decel="4.5" sigma="0.5" tau="1"/>
	<route id="11" edges="246546100_2535737080_2535737096_2535737080 246546100_2535737080_2535737096_2535737155 246546100_2535737080_2535737096_2535737089 246546100_2535737096_2535737068_2535737096 246546100_2535737096_2535737068_2535737108 246546100_2535737096_2535737068_2535737103 246546100_2535737096_2535737068_2535737166 246546100_2535737096_2535737068_2535737083 246546100_2535737096_2535737068_2535737132 246546100_2535737068_2535737120_2535737068 246546104_2535737120_2535737179_2535737120 246546104_2535737120_2535737179_2535737150 246546088_2535737179_2535737113_2535737179 246546088_2535737179_2535737113_2535737088 246546088_2535737113_2535737137_2535737113 246546088_2535737113_2535737137_7592399640 246546088_2535737137_2535737130_2535737137 246546088_2535737137_2535737130_2535737164 246546088_2535737130_2535737145_2535737130 246546088_2535737130_2535737145_2535737138 246546088_2535737130_2535737145_2535737076 246546088_2535737130_2535737145_2535737125 246546088_2535737130_2535737145_2535737073 150111131_2535737145_1630333072_2535737145 299982020_1630333072_196110951_1630333072 299982020_1630333072_196110951_196096859 299982020_1630333072_196110951_196102896 299982020_1630333072_196110951_196094999 299982020_1630333072_196110951_196095702 299982020_1630333072_196110951_196111663" />
	<route id="12" edges="246546100_2535737080_2535737096_2535737080 246546100_2535737080_2535737096_2535737155 246546100_2535737080_2535737096_2535737089 246546100_2535737096_2535737068_2535737096 246546100_2535737096_2535737068_2535737108 246546100_2535737096_2535737068_2535737103 246546100_2535737096_2535737068_2535737166 246546100_2535737096_2535737068_2535737083 246546100_2535737096_2535737068_2535737132 246546100_2535737068_2535737120_2535737068 246546104_2535737120_2535737165_2535737120 246546104_2535737120_2535737165_2535737151 246546104_2535737120_2535737165_2535737067 246546104_2535737120_2535737165_2535737077 246546088_2535737165_2535737128_2535737165 246546088_2535737165_2535737128_2535737110 246546088_2535737165_2535737128_2535737139 246546088_2535737128_2535743431_2535737128 246546088_2535737128_2535743431_7592399712 246546088_2535737128_2535743431_2535737126 246546088_2535737128_2535743431_7592399682 246546088_2535737128_2535743431_2535737136 246546088_2535743431_2535737075_2535743431 246546093_2535737075_2535737172_2535737075 246546093_2535737075_2535737172_2535737124 246546105_2535737172_2535737162_2535737172 246546105_2535737162_2535737084_2535737162 246546102_2535737084_2535737182_2535737084" />
	<route id="13" edges="246546088_2535737137_2535737113_2535737137 246546088_2535737137_2535737113_7592399640 246546088_2535737113_2535737179_2535737113 246546088_2535737113_2535737179_2535737088 246546088_2535737179_2535737165_2535737179 246546088_2535737165_2535737128_2535737165 246546088_2535737165_2535737128_2535737110 246546088_2535737165_2535737128_2535737139 246546093_2535737128_2535737170_2535737128 246546098_2535737170_2535737176_2535737170 246546098_2535737170_2535737176_2535737071 246546096_2535737176_2535737114_2535737176" />
	<route id="14" edges="246546088_2535737137_2535737113_2535737137 246546088_2535737137_2535737113_7592399640 246546088_2535737113_2535737179_2535737113 246546088_2535737113_2535737179_2535737088 246546104_2535737179_2535737120_2535737179 246546104_2535737179_2535737120_2535737150 246546100_2535737120_2535737068_2535737120 246546100_2535737068_2535737096_2535737068 246546100_2535737068_2535737096_2535737132 246546100_2535737068_2535737096_2535737083 246546100_2535737068_2535737096_2535737166 246546100_2535737068_2535737096_2535737103 246546100_2535737068_2535737096_2535737108 246546095_2535737096_2535737101_2535737096 246546095_2535737096_2535737101_2535737123 246546095_2535737096_2535737101_2535737065" />
	<route id="1" edges="246546093_2535737106_2535737094_2535737175 246546093_2535737106_2535737094_2535737154 246546093_2535737106_2535737094_2535737115 246546093_2535737094_2535737106_2535737094 246546093_2535737094_2535737106_2535737115 246546093_2535737094_2535737106_2535737154 246546093_2535737094_2535737106_2535737175 246546093_2535737094_2535737106_2535737167 246546093_2535737094_2535737106_2535737159 246546093_2535737106_2535737063_2535737106 246546093_2535737106_2535737063_2535737147 246546093_2535737063_2535737172_2535737063 246546093_2535737172_2535737075_2535737172 246546093_2535737172_2535737075_2535737124 246546093_2535737075_2535737079_2535737075 246546093_2535737075_2535737079_2535737087 246546093_2535737075_2535737079_2535737140 246546089_2535737079_2535737062_2535737079 246546089_2535737079_2535737062_2535737069 246546089_2535737079_2535737062_2535737127 246546089_2535737079_2535737062_2535737177 246546089_2535737079_2535737062_2535737169 246546089_2535737079_2535737062_2535737111 246546089_2535737079_2535737062_2535737143 361785873_2535737062_2535737160_2535737062 361785873_2535737062_2535737160_2535737152 299982020_2535737160_2535737081_2535737160 299982020_2535737081_1630333072_2535737081 299982020_2535737081_1630333072_196110503 299982020_2535737081_1630333072_196097007 299982020_2535737081_1630333072_196095530 299982020_2535737081_1630333072_196099421 299982020_2535737081_1630333072_196097938 299982020_2535737081_1630333072_196108277 299982020_1630333072_196110951_1630333072 299982020_1630333072_196110951_196096859 299982020_1630333072_196110951_196102896 299982020_1630333072_196110951_196094999 299982020_1630333072_196110951_196095702 299982020_1630333072_196110951_196111663" />
	<route id="2" edges="246546093_2535737106_2535737094_2535737175 246546093_2535737106_2535737094_2535737154 246546093_2535737106_2535737094_2535737115 246546093_2535737094_2535737106_2535737094 246546093_2535737094_2535737106_2535737115 246546093_2535737094_2535737106_2535737154 246546093_2535737094_2535737106_2535737175 246546093_2535737094_2535737106_2535737167 246546093_2535737094_2535737106_2535737159 246546093_2535737106_2535737063_2535737106 246546093_2535737106_2535737063_2535737147 246546093_2535737063_2535737172_2535737063 246546093_2535737172_2535737075_2535737172 246546093_2535737172_2535737075_2535737124 246546093_2535737075_2535737079_2535737075 246546093_2535737075_2535737079_2535737087 246546093_2535737075_2535737079_2535737140 246546089_2535737079_2535737062_2535737079 246546089_2535737079_2535737062_2535737069 246546089_2535737079_2535737062_2535737127 246546089_2535737079_2535737062_2535737177 246546089_2535737079_2535737062_2535737169 246546089_2535737079_2535737062_2535737111 246546089_2535737079_2535737062_2535737143 361785873_2535737062_2535737160_2535737062 361785873_2535737062_2535737160_2535737152 299982020_2535737160_2535737081_2535737160 299982020_2535737081_1630333072_2535737081 299982020_2535737081_1630333072_196110503 299982020_2535737081_1630333072_196097007 299982020_2535737081_1630333072_196095530 299982020_2535737081_1630333072_196099421 299982020_2535737081_1630333072_196097938 299982020_2535737081_1630333072_196108277 150111131_1630333072_2535737145_1630333072 150111131_2535737145_6689631391_2535737145 150111131_2535737145_6689631391_1935599514 150111131_2535737145_6689631391_1630333074 711516152_6689631391_6689631392_6689631391 711516153_6689631392_1630333087_6689631392 711516153_6689631392_1630333087_6689631406 711516153_6689631392_1630333087_6689631401 711516153_6689631392_1630333087_6689631402 711516153_6689631392_1630333087_6689631403 711516153_6689631392_1630333087_6689631404 711516153_6689631392_1630333087_6689631405 150111131_1630333087_1810117325_1630333087 150111131_1630333087_1810117325_1630333091 150111131_1630333087_1810117325_1630333077" />
	<route id="3" edges="246546093_2535737106_2535737094_2535737175 246546093_2535737106_2535737094_2535737154 246546093_2535737106_2535737094_2535737115 246546093_2535737094_2535737106_2535737094 246546093_2535737094_2535737106_2535737115 246546093_2535737094_2535737106_2535737154 246546093_2535737094_2535737106_2535737175 246546093_2535737094_2535737106_2535737167 246546093_2535737094_2535737106_2535737159 246546093_2535737106_2535737063_2535737106 246546093_2535737106_2535737063_2535737147 246546093_2535737063_2535737172_2535737063 246546093_2535737172_2535737075_2535737172 246546093_2535737172_2535737075_2535737124 246546093_2535737075_2535737079_2535737075 246546093_2535737075_2535737079_2535737087 246546093_2535737075_2535737079_2535737140 246546089_2535737079_2535737062_2535737079 246546089_2535737079_2535737062_2535737069 246546089_2535737079_2535737062_2535737127 246546089_2535737079_2535737062_2535737177 246546089_2535737079_2535737062_2535737169 246546089_2535737079_2535737062_2535737111 246546089_2535737079_2535737062_2535737143 246546092_2535737062_2535737066_2535737062 246546092_2535737062_2535737066_2535737064 246546092_2535737062_2535737066_2535737146 299982020_2535737066_3697032674_2535737066 299982020_2535737066_3697032674_196111498 299982020_2535737066_3697032674_7592399225 299982020_2535737066_3697032674_196100312 299982020_2535737066_3697032674_196110856 299982020_2535737066_3697032674_7592399716 299982020_2535737066_3697032674_196101263 299982020_2535737066_3697032674_196100397 299982020_2535737066_3697032674_196111173 299982020_2535737066_3697032674_2592049028 299982020_2535737066_3697032674_196095107 299982020_2535737066_3697032674_196108871 299982020_2535737066_3697032674_196100138 299982020_2535737066_3697032674_196095966 299982020_2535737066_3697032674_1572967229 299982020_2535737066_3697032674_196108728 299982020_2535737066_3697032674_1572967212 299982020_2535737066_3697032674_3695682410 299982020_2535737066_3697032674_3695683476 299982020_2535737066_3697032674_196110612 299982020_2535737066_3697032674_3695683602 299982020_2535737066_3697032674_504292337 299982020_2535737066_3697032674_3695683615 299982020_2535737066_3697032674_3695683586 299982020_2535737066_3697032674_3695683585 299982020_2535737066_3697032674_3049340823 299982020_2535737066_3697032674_196099799 299982020_2535737066_3697032674_196098272 299982020_2535737066_3697032674_7592399341 299982020_2535737066_3697032674_1572967069 299982020_2535737066_3697032674_1572967067 299982020_2535737066_3697032674_1572967063 299982020_2535737066_3697032674_1572967052 299982020_2535737066_3697032674_3335967413 299982020_2535737066_3697032674_3335967440 299982020_2535737066_3697032674_196102388 299982020_2535737066_3697032674_3335967446 299982020_2535737066_3697032674_3335967423 299982020_2535737066_3697032674_3049338241 299982020_2535737066_3697032674_3049338240 299982020_2535737066_3697032674_3049338239 299982020_3697032674_2535737066_3697032674 299982020_3697032674_2535737066_3049338239 299982020_3697032674_2535737066_3049338240 299982020_3697032674_2535737066_3049338241 299982020_3697032674_2535737066_3335967423 299982020_3697032674_2535737066_3335967446 299982020_3697032674_2535737066_196102388 299982020_3697032674_2535737066_3335967440 299982020_3697032674_2535737066_3335967413 299982020_3697032674_2535737066_1572967052 299982020_3697032674_2535737066_1572967063 299982020_3697032674_2535737066_1572967067 299982020_3697032674_2535737066_1572967069 299982020_3697032674_2535737066_7592399341 299982020_3697032674_2535737066_196098272 299982020_3697032674_2535737066_196099799 299982020_3697032674_2535737066_3049340823 299982020_3697032674_2535737066_3695683585 299982020_3697032674_2535737066_3695683586 299982020_3697032674_2535737066_3695683615 299982020_3697032674_2535737066_504292337 299982020_3697032674_2535737066_3695683602 299982020_3697032674_2535737066_196110612 299982020_3697032674_2535737066_3695683476 299982020_3697032674_2535737066_3695682410 299982020_3697032674_2535737066_1572967212 299982020_3697032674_2535737066_196108728 299982020_3697032674_2535737066_1572967229 299982020_3697032674_2535737066_196095966 299982020_3697032674_2535737066_196100138 299982020_3697032674_2535737066_196108871 299982020_3697032674_2535737066_196095107 299982020_3697032674_2535737066_2592049028 299982020_3697032674_2535737066_196111173 299982020_3697032674_2535737066_196100397 299982020_3697032674_2535737066_196101263 299982020_3697032674_2535737066_7592399716 299982020_3697032674_2535737066_196110856" />
	<route id="4" edges="246546093_2535737106_2535737094_2535737175 246546093_2535737106_2535737094_2535737154 246546093_2535737106_2535737094_2535737115 246546093_2535737094_2535737106_2535737094 246546093_2535737094_2535737106_2535737115 246546093_2535737094_2535737106_2535737154 246546093_2535737094_2535737106_2535737175 246546093_2535737094_2535737106_2535737167 246546093_2535737094_2535737106_2535737159 246546093_2535737106_2535737063_2535737106 246546093_2535737106_2535737063_2535737147 246546093_2535737063_2535737172_2535737063 246546093_2535737172_2535737075_2535737172 246546093_2535737172_2535737075_2535737124 246546093_2535737075_2535737079_2535737075 246546093_2535737075_2535737079_2535737087 246546093_2535737075_2535737079_2535737140 246546089_2535737079_2535737062_2535737079 246546089_2535737079_2535737062_2535737069 246546089_2535737079_2535737062_2535737127 246546089_2535737079_2535737062_2535737177 246546089_2535737079_2535737062_2535737169 246546089_2535737079_2535737062_2535737111 246546089_2535737079_2535737062_2535737143 361785873_2535737062_2535737160_2535737062 361785873_2535737062_2535737160_2535737152 299982020_2535737160_2535737081_2535737160 299982020_2535737081_1630333072_2535737081 299982020_2535737081_1630333072_196110503 299982020_2535737081_1630333072_196097007 299982020_2535737081_1630333072_196095530 299982020_2535737081_1630333072_196099421 299982020_2535737081_1630333072_196097938 299982020_2535737081_1630333072_196108277 299982020_1630333072_196110951_1630333072 299982020_1630333072_196110951_196096859 299982020_1630333072_196110951_196102896 299982020_1630333072_196110951_196094999 299982020_1630333072_196110951_196095702 299982020_1630333072_196110951_196111663 299982020_1630333072_196110951_196110077 299982020_1630333072_196110951_196094453 299982020_1630333072_196110951_196110247" />
	<route id="5" edges="299982020_1630333072_196110951_196100346 299982020_1630333072_196110951_196110920 299982020_1630333072_196110951_196109380 299982020_1630333072_196110951_196100202 299982020_1630333072_196110951_196102287 299982020_1630333072_196110951_196112204 299982020_1630333072_196110951_196109046 299982020_1630333072_196110951_7592450106 299982020_1630333072_196110951_196111442 299982020_1630333072_196110951_196101282 299982020_1630333072_196110951_196108605 299982020_1630333072_196110951_196110343 299982020_1630333072_196110951_196095767 299982020_1630333072_196110951_196098453 299982020_1630333072_196110951_196098734 299982020_1630333072_196110951_196099239 299982020_1630333072_196110951_196099513 299982020_1630333072_196110951_7209772865 299982020_1630333072_196110951_7209772862 299982020_1630333072_196110951_3076881229 299982020_1630333072_196110951_1974483042 299982020_1630333072_196110951_7209764968 299982020_196110951_1630333072_196110951 299982020_196110951_1630333072_7209764968 299982020_196110951_1630333072_1974483042 299982020_196110951_1630333072_3076881229 299982020_196110951_1630333072_7209772862 299982020_196110951_1630333072_7209772865 299982020_196110951_1630333072_196099513 299982020_196110951_1630333072_196099239 299982020_196110951_1630333072_196098734 299982020_196110951_1630333072_196098453 299982020_196110951_1630333072_196095767 299982020_196110951_1630333072_196110343 299982020_196110951_1630333072_196108605 299982020_196110951_1630333072_196101282 299982020_196110951_1630333072_196111442 299982020_196110951_1630333072_7592450106 299982020_196110951_1630333072_196109046 299982020_196110951_1630333072_196112204 299982020_196110951_1630333072_196102287 299982020_196110951_1630333072_196100202 299982020_196110951_1630333072_196109380 299982020_196110951_1630333072_196110920 299982020_196110951_1630333072_196100346 299982020_196110951_1630333072_196096638 299982020_196110951_1630333072_196110247 299982020_196110951_1630333072_196094453 299982020_196110951_1630333072_196110077 299982020_196110951_1630333072_196111663 299982020_196110951_1630333072_196095702 299982020_196110951_1630333072_196094999 299982020_196110951_1630333072_196102896 299982020_196110951_1630333072_196096859 150111131_1630333072_2535737145_1630333072 150111131_2535737145_6689631391_2535737145 150111131_2535737145_6689631391_1935599514 150111131_2535737145_6689631391_1630333074 711516152_6689631391_6689631392_6689631391 711516153_6689631392_1630333087_6689631392 711516153_6689631392_1630333087_6689631406 711516153_6689631392_1630333087_6689631401 711516153_6689631392_1630333087_6689631402 711516153_6689631392_1630333087_6689631403 711516153_6689631392_1630333087_6689631404 711516153_6689631392_1630333087_6689631405 150111131_1630333087_1810117325_1630333087 150111131_1630333087_1810117325_1630333091" />
	<route id="6" edges="299982020_1630333072_196110951_196100346 299982020_1630333072_196110951_196110920 299982020_1630333072_196110951_196109380 299982020_1630333072_196110951_196100202 299982020_1630333072_196110951_196102287 299982020_1630333072_196110951_196112204 299982020_1630333072_196110951_196109046 299982020_1630333072_196110951_7592450106 299982020_1630333072_196110951_196111442 299982020_1630333072_196110951_196101282 299982020_1630333072_196110951_196108605 299982020_1630333072_196110951_196110343 299982020_1630333072_196110951_196095767 299982020_1630333072_196110951_196098453 299982020_1630333072_196110951_196098734 299982020_1630333072_196110951_196099239 299982020_1630333072_196110951_196099513 299982020_1630333072_196110951_7209772865 299982020_1630333072_196110951_7209772862 299982020_1630333072_196110951_3076881229 299982020_1630333072_196110951_1974483042 299982020_1630333072_196110951_7209764968 299982020_196110951_1630333072_196110951 299982020_196110951_1630333072_7209764968 299982020_196110951_1630333072_1974483042 299982020_196110951_1630333072_3076881229 299982020_196110951_1630333072_7209772862 299982020_196110951_1630333072_7209772865 299982020_196110951_1630333072_196099513 299982020_196110951_1630333072_196099239 299982020_196110951_1630333072_196098734 299982020_196110951_1630333072_196098453 299982020_196110951_1630333072_196095767 299982020_196110951_1630333072_196110343 299982020_196110951_1630333072_196108605 299982020_196110951_1630333072_196101282 299982020_196110951_1630333072_196111442 299982020_196110951_1630333072_7592450106 299982020_196110951_1630333072_196109046 299982020_196110951_1630333072_196112204 299982020_196110951_1630333072_196102287 299982020_196110951_1630333072_196100202 299982020_196110951_1630333072_196109380 299982020_196110951_1630333072_196110920 299982020_196110951_1630333072_196100346 299982020_196110951_1630333072_196096638 299982020_196110951_1630333072_196110247 299982020_196110951_1630333072_196094453 299982020_196110951_1630333072_196110077 299982020_196110951_1630333072_196111663 299982020_196110951_1630333072_196095702 299982020_196110951_1630333072_196094999 299982020_196110951_1630333072_196102896 299982020_196110951_1630333072_196096859 299982020_1630333072_2535737081_1630333072 299982020_1630333072_2535737081_196108277 299982020_1630333072_2535737081_196097938 299982020_1630333072_2535737081_196099421 299982020_1630333072_2535737081_196095530 299982020_1630333072_2535737081_196097007 299982020_1630333072_2535737081_196110503 246546091_2535737081_2535737107_2535737081 246546091_2535737081_2535737107_2535737117 246546090_2535737107_2535737116_2535737107 246546090_2535737107_2535737116_2535737134 246546090_2535737107_2535737116_2535737135 246546090_2535737107_2535737116_2535737178 246546090_2535737107_2535737116_2535737121 246546090_2535737107_2535737116_2535737163 246546093_2535737116_2535737079_2535737116 246546093_2535737079_2535737075_2535737079 246546093_2535737079_2535737075_2535737140 246546093_2535737079_2535737075_2535737087 246546093_2535737075_2535737172_2535737075 246546093_2535737075_2535737172_2535737124 246546093_2535737172_2535737063_2535737172 246546093_2535737063_2535737106_2535737063 246546093_2535737063_2535737106_2535737147 246546093_2535737106_2535737094_2535737106 246546093_2535737106_2535737094_2535737159 246546093_2535737106_2535737094_2535737167 246546093_2535737106_2535737094_2535737175 246546093_2535737106_2535737094_2535737154 246546093_2535737106_2535737094_2535737115" />
	<route id="7" edges="299982020_1630333072_196110951_196100346 299982020_1630333072_196110951_196110920 299982020_1630333072_196110951_196109380 299982020_1630333072_196110951_196100202 299982020_1630333072_196110951_196102287 299982020_1630333072_196110951_196112204 299982020_1630333072_196110951_196109046 299982020_1630333072_196110951_7592450106 299982020_1630333072_196110951_196111442 299982020_1630333072_196110951_196101282 299982020_1630333072_196110951_196108605 299982020_1630333072_196110951_196110343 299982020_1630333072_196110951_196095767 299982020_1630333072_196110951_196098453 299982020_1630333072_196110951_196098734 299982020_1630333072_196110951_196099239 299982020_1630333072_196110951_196099513 299982020_1630333072_196110951_7209772865 299982020_1630333072_196110951_7209772862 299982020_1630333072_196110951_3076881229 299982020_1630333072_196110951_1974483042 299982020_1630333072_196110951_7209764968 299982020_196110951_1630333072_196110951 299982020_196110951_1630333072_7209764968 299982020_196110951_1630333072_1974483042 299982020_196110951_1630333072_3076881229 299982020_196110951_1630333072_7209772862 299982020_196110951_1630333072_7209772865 299982020_196110951_1630333072_196099513 299982020_196110951_1630333072_196099239 299982020_196110951_1630333072_196098734 299982020_196110951_1630333072_196098453 299982020_196110951_1630333072_196095767 299982020_196110951_1630333072_196110343 299982020_196110951_1630333072_196108605 299982020_196110951_1630333072_196101282 299982020_196110951_1630333072_196111442 299982020_196110951_1630333072_7592450106 299982020_196110951_1630333072_196109046 299982020_196110951_1630333072_196112204 299982020_196110951_1630333072_196102287 299982020_196110951_1630333072_196100202 299982020_196110951_1630333072_196109380 299982020_196110951_1630333072_196110920 299982020_196110951_1630333072_196100346 299982020_196110951_1630333072_196096638 299982020_196110951_1630333072_196110247 299982020_196110951_1630333072_196094453 299982020_196110951_1630333072_196110077 299982020_196110951_1630333072_196111663 299982020_196110951_1630333072_196095702 299982020_196110951_1630333072_196094999 299982020_196110951_1630333072_196102896 299982020_196110951_1630333072_196096859 299982020_1630333072_2535737081_1630333072 299982020_1630333072_2535737081_196108277 299982020_1630333072_2535737081_196097938 299982020_1630333072_2535737081_196099421 299982020_1630333072_2535737081_196095530 299982020_1630333072_2535737081_196097007 299982020_1630333072_2535737081_196110503 246546091_2535737081_2535737107_2535737081 246546091_2535737081_2535737107_2535737117 246546090_2535737107_2535737116_2535737107 246546090_2535737107_2535737116_2535737134 246546090_2535737107_2535737116_2535737135 246546090_2535737107_2535737116_2535737178 246546090_2535737107_2535737116_2535737121 246546090_2535737107_2535737116_2535737163 246546093_2535737116_2535737079_2535737116 246546093_2535737079_2535737075_2535737079 246546093_2535737079_2535737075_2535737140 246546093_2535737079_2535737075_2535737087 246546093_2535737075_2535737172_2535737075 246546093_2535737075_2535737172_2535737124 246546093_2535737172_2535737063_2535737172 246546093_2535737063_2535737106_2535737063 246546093_2535737063_2535737106_2535737147 246546814_2535737106_2535743410_2535737106 246546814_2535737106_2535743410_2535743401 246546814_2535737106_2535743410_2535743425 246546814_2535737106_2535743410_2535743419 246546814_2535737106_2535743410_2535743437 246546814_2535737106_2535743410_2535743413 246546814_2535737106_2535743410_2535743404 246546814_2535737106_2535743410_2535743405 246546814_2535737106_2535743410_2535743434 246546814_2535737106_2535743410_2535743421 246546814_2535737106_2535743410_2535743429 246546814_2535737106_2535743410_2535743403 246546814_2535737106_2535743410_2535743424 246546814_2535737106_2535743410_2535743408 246546814_2535737106_2535743410_2535743412 246546814_2535737106_2535743410_2535743427" />