<edges>
	<edge id="299982020_2535737066_2535737160_2535737066" from="2535737066" to="2535737160" numLanes="1" speed="18.06" />
	<edge id="246546105_2535737085_2535737084_2535737085" from="2535737085" to="2535737084" numLanes="1" speed="8.33" />
	<edge id="169852530_1810117325_2535743428_1810117325" from="1810117325" to="1810117304" numLanes="1" speed="8.33" />
	<edge id="169852530_1810117325_2535743428_1810117304" from="1810117304" to="1810117359" numLanes="1" speed="8.33" />
	<edge id="169852530_1810117325_2535743428_1810117359" from="1810117359" to="1810117287" numLanes="1" speed="8.33" />
	<edge id="169852530_1810117325_2535743428_1810117287" from="1810117287" to="1810117281" numLanes="1" speed="8.33" />
	<edge id="169852530_1810117325_2535743428_1810117281" from="1810117281" to="1810117379" numLanes="1" speed="8.33" />
	<edge id="169852530_1810117325_2535743428_1810117379" from="1810117379" to="1810117355" numLanes="1" speed="8.33" />
	<edge id="169852530_1810117325_2535743428_1810117355" from="1810117355" to="1810117295" numLanes="1" speed="8.33" />
	<edge id="169852530_1810117325_2535743428_1810117295" from="1810117295" to="1810117277" numLanes="1" speed="8.33" />
	<edge id="169852530_1810117325_2535743428_1810117277" from="1810117277" to="1810117374" numLanes="1" speed="8.33" />
	<edge id="169852530_1810117325_2535743428_1810117374" from="1810117374" to="1810117270" numLanes="1" speed="8.33" />
	<edge id="169852530_1810117325_2535743428_1810117270" from="1810117270" to="1810117271" numLanes="1" speed="8.33" />
	<edge id="169852530_1810117325_2535743428_1810117271" from="1810117271" to="2535743428" numLanes="1" speed="8.33" />
	<edge id="246546104_2535737120_2535737179_2535737120" from="2535737120" to="2535737150" numLanes="1" speed="8.33" />
	<edge id="246546104_2535737120_2535737179_2535737150" from="2535737150" to="2535737179" numLanes="1" speed="8.33" />
	<edge id="150111131_1810117325_1630333087_1810117325" from="1810117325" to="1630333094" numLanes="1" speed="8.33" />
	<edge id="150111131_1810117325_1630333087_1630333094" from="1630333094" to="1630333080" numLanes="1" speed="8.33" />
	<edge id="150111131_1810117325_1630333087_1630333080" from="1630333080" to="1630333084" numLanes="1" speed="8.33" />
	<edge id="150111131_1810117325_1630333087_1630333084" from="1630333084" to="1630333077" numLanes="1" speed="8.33" />
	<edge id="150111131_1810117325_1630333087_1630333077" from="1630333077" to="1630333091" numLanes="1" speed="8.33" />
	<edge id="150111131_1810117325_1630333087_1630333091" from="1630333091" to="1630333087" numLanes="1" speed="8.33" />
	<edge id="150111131_6689631391_2535737145_6689631391" from="6689631391" to="1630333074" numLanes="1" speed="8.33" />
	<edge id="150111131_6689631391_2535737145_1630333074" from="1630333074" to="1935599514" numLanes="1" speed="8.33" />
	<edge id="150111131_6689631391_2535737145_1935599514" from="1935599514" to="2535737145" numLanes="1" speed="8.33" />
	<edge id="246546088_2535737130_2535737145_2535737130" from="2535737130" to="2535737138" numLanes="1" speed="8.33" />
	<edge id="246546088_2535737130_2535737145_2535737138" from="2535737138" to="2535737076" numLanes="1" speed="8.33" />
	<edge id="246546088_2535737130_2535737145_2535737076" from="2535737076" to="2535737125" numLanes="1" speed="8.33" />
	<edge id="246546088_2535737130_2535737145_2535737125" from="2535737125" to="2535737073" numLanes="1" speed="8.33" />
	<edge id="246546088_2535737130_2535737145_2535737073" from="2535737073" to="2535737145" numLanes="1" speed="8.33" />
	<edge id="299982020_2535737081_1630333072_2535737081" from="2535737081" to="196110503" numLanes="1" speed="18.06" />
	<edge id="299982020_2535737081_1630333072_196110503" from="196110503" to="196097007" numLanes="1" speed="18.06" />
	<edge id="299982020_2535737081_1630333072_196097007" from="196097007" to="196095530" numLanes="1" speed="18.06" />
	<edge id="299982020_2535737081_1630333072_196095530" from="196095530" to="196099421" numLanes="1" speed="18.06" />
	<edge id="299982020_2535737081_1630333072_196099421" from="196099421" to="196097938" numLanes="1" speed="18.06" />
	<edge id="299982020_2535737081_1630333072_196097938" from="196097938" to="196108277" numLanes="1" speed="18.06" />
	<edge id="299982020_2535737081_1630333072_196108277" from="196108277" to="1630333072" numLanes="1" speed="18.06" />
	<edge id="246546097_2535737153_2535737161_2535737153" from="2535737153" to="2535737173" numLanes="1" speed="8.33" />
	<edge id="246546097_2535737153_2535737161_2535737173" from="2535737173" to="2535737161" numLanes="1" speed="8.33" />
	<edge id="246546093_2535737094_2535737106_2535737094" from="2535737094" to="2535737115" numLanes="1" speed="8.33" />
	<edge id="246546093_2535737094_2535737106_2535737115" from="2535737115" to="2535737154" numLanes="1" speed="8.33" />
	<edge id="246546093_2535737094_2535737106_2535737154" from="2535737154" to="2535737175" numLanes="1" speed="8.33" />
	<edge id="246546093_2535737094_2535737106_2535737175" from="2535737175" to="2535737167" numLanes="1" speed="8.33" />
	<edge id="246546093_2535737094_2535737106_2535737167" from="2535737167" to="2535737159" numLanes="1" speed="8.33" />
	<edge id="246546093_2535737094_2535737106_2535737159" from="2535737159" to="2535737106" numLanes="1" speed="8.33" />
	<edge id="711516153_1630333087_6689631392_1630333087" from="1630333087" to="6689631405" numLanes="1" speed="8.33" />
	<edge id="711516153_1630333087_6689631392_6689631405" from="6689631405" to="6689631404" numLanes="1" speed="8.33" />
	<edge id="711516153_1630333087_6689631392_6689631404" from="6689631404" to="6689631403" numLanes="1" speed="8.33" />
	<edge id="711516153_1630333087_6689631392_6689631403" from="6689631403" to="6689631402" numLanes="1" speed="8.33" />
	<edge id="711516153_1630333087_6689631392_6689631402" from="6689631402" to="6689631401" numLanes="1" speed="8.33" />
	<edge id="711516153_1630333087_6689631392_6689631401" from="6689631401" to="6689631406" numLanes="1" speed="8.33" />
	<edge id="711516153_1630333087_6689631392_6689631406" from="6689631406" to="6689631392" numLanes="1" speed="8.33" />
	<edge id="299982020_2535737160_2535737066_2535737160" from="2535737160" to="2535737066" numLanes="1" speed="18.06" />
	<edge id="711516152_6689631392_6689631391_6689631392" from="6689631392" to="6689631391" numLanes="1" speed="8.33" />
	<edge id="246546818_2535743436_2535737063_2535743436" from="2535743436" to="2535743422" numLanes="1" speed="8.33" />
	<edge id="246546818_2535743436_2535737063_2535743422" from="2535743422" to="2535737063" numLanes="1" speed="8.33" />
	<edge id="246546103_2535737093_2535737161_2535737093" from="2535737093" to="2535737070" numLanes="1" speed="8.33" />
	<edge id="246546103_2535737093_2535737161_2535737070" from="2535737070" to="2535737122" numLanes="1" speed="8.33" />
	<edge id="246546103_2535737093_2535737161_2535737122" from="2535737122" to="2535737161" numLanes="1" speed="8.33" />
	<edge id="361785873_2535737062_2535737160_2535737062" from="2535737062" to="2535737152" numLanes="2" speed="8.33" />
	<edge id="361785873_2535737062_2535737160_2535737152" from="2535737152" to="2535737160" numLanes="2" speed="8.33" />
	<edge id="246546817_2535743431_2535743418_2535743431" from="2535743431" to="2535743430" numLanes="1" speed="8.33" />
	<edge id="246546817_2535743431_2535743418_2535743430" from="2535743430" to="7592399679" numLanes="1" speed="8.33" />
	<edge id="246546817_2535743431_2535743418_7592399679" from="7592399679" to="2535743417" numLanes="1" speed="8.33" />
	<edge id="246546817_2535743431_2535743418_2535743417" from="2535743417" to="2535743418" numLanes="1" speed="8.33" />
	<edge id="246546093_2535737106_2535737063_2535737106" from="2535737106" to="2535737147" numLanes="1" speed="8.33" />
	<edge id="246546093_2535737106_2535737063_2535737147" from="2535737147" to="2535737063" numLanes="1" speed="8.33" />
	<edge id="246546104_2535737120_2535737165_2535737120" from="2535737120" to="2535737151" numLanes="1" speed="8.33" />
	<edge id="246546104_2535737120_2535737165_2535737151" from="2535737151" to="2535737067" numLanes="1" speed="8.33" />
	<edge id="246546104_2535737120_2535737165_2535737067" from="2535737067" to="2535737077" numLanes="1" speed="8.33" />
	<edge id="246546104_2535737120_2535737165_2535737077" from="2535737077" to="2535737165" numLanes="1" speed="8.33" />
	<edge id="246546100_2535737068_2535737096_2535737068" from="2535737068" to="2535737132" numLanes="1" speed="8.33" />
	<edge id="246546100_2535737068_2535737096_2535737132" from="2535737132" to="2535737083" numLanes="1" speed="8.33" />
	<edge id="246546100_2535737068_2535737096_2535737083" from="2535737083" to="2535737166" numLanes="1" speed="8.33" />
	<edge id="246546100_2535737068_2535737096_2535737166" from="2535737166" to="2535737103" numLanes="1" speed="8.33" />
	<edge id="246546100_2535737068_2535737096_2535737103" from="2535737103" to="2535737108" numLanes="1" speed="8.33" />
	<edge id="246546100_2535737068_2535737096_2535737108" from="2535737108" to="2535737096" numLanes="1" speed="8.33" />
	<edge id="299982020_196110951_1630333072_196110951" from="196110951" to="7209764968" numLanes="1" speed="18.06" />
	<edge id="299982020_196110951_1630333072_7209764968" from="7209764968" to="1974483042" numLanes="1" speed="18.06" />
	<edge id="299982020_196110951_1630333072_1974483042" from="1974483042" to="3076881229" numLanes="1" speed="18.06" />
	<edge id="299982020_196110951_1630333072_3076881229" from="3076881229" to="7209772862" numLanes="1" speed="18.06" />
	<edge id="299982020_196110951_1630333072_7209772862" from="7209772862" to="7209772865" numLanes="1" speed="18.06" />
	<edge id="299982020_196110951_1630333072_7209772865" from="7209772865" to="196099513" numLanes="1" speed="18.06" />
	<edge id="299982020_196110951_1630333072_196099513" from="196099513" to="196099239" numLanes="1" speed="18.06" />
	<edge id="299982020_196110951_1630333072_196099239" from="196099239" to="196098734" numLanes="1" speed="18.06" />
	<edge id="299982020_196110951_1630333072_196098734" from="196098734" to="196098453" numLanes="1" speed="18.06" />
	<edge id="299982020_196110951_1630333072_196098453" from="196098453" to="196095767" numLanes="1" speed="18.06" />
	<edge id="299982020_196110951_1630333072_196095767" from="196095767" to="196110343" numLanes="1" speed="18.06" />
	<edge id="299982020_196110951_1630333072_196110343" from="196110343" to="196108605" numLanes="1" speed="18.06" />
	<edge id="299982020_196110951_1630333072_196108605" from="196108605" to="196101282" numLanes="1" speed="18.06" />
	<edge id="299982020_196110951_1630333072_196101282" from="196101282" to="196111442" numLanes="1" speed="18.06" />
	<edge id="299982020_196110951_1630333072_196111442" from="196111442" to="7592450106" numLanes="1" speed="18.06" />
	<edge id="299982020_196110951_1630333072_7592450106" from="7592450106" to="196109046" numLanes="1" speed="18.06" />
	<edge id="299982020_196110951_1630333072_196109046" from="196109046" to="196112204" numLanes="1" speed="18.06" />
	<edge id="299982020_196110951_1630333072_196112204" from="196112204" to="196102287" numLanes="1" speed="18.06" />
	<edge id="299982020_196110951_1630333072_196102287" from="196102287" to="196100202" numLanes="1" speed="18.06" />
	<edge id="299982020_196110951_1630333072_196100202" from="196100202" to="196109380" numLanes="1" speed="18.06" />
	<edge id="299982020_196110951_1630333072_196109380" from="196109380" to="196110920" numLanes="1" speed="18.06" />
	<edge id="299982020_196110951_1630333072_196110920" from="196110920" to="196100346" numLanes="1" speed="18.06" />
	<edge id="299982020_196110951_1630333072_196100346" from="196100346" to="196096638" numLanes="1" speed="18.06" />
	<edge id="299982020_196110951_1630333072_196096638" from="196096638" to="196110247" numLanes="1" speed="18.06" />
	<edge id="299982020_196110951_1630333072_196110247" from="196110247" to="196094453" numLanes="1" speed="18.06" />
	<edge id="299982020_196110951_1630333072_196094453" from="196094453" to="196110077" numLanes="1" speed="18.06" />
	<edge id="299982020_196110951_1630333072_196110077" from="196110077" to="196111663" numLanes="1" speed="18.06" />
	<edge id="299982020_196110951_1630333072_196111663" from="196111663" to="196095702" numLanes="1" speed="18.06" />
	<edge id="299982020_196110951_1630333072_196095702" from="196095702" to="196094999" numLanes="1" speed="18.06" />
	<edge id="299982020_196110951_1630333072_196094999" from="196094999" to="196102896" numLanes="1" speed="18.06" />
	<edge id="299982020_196110951_1630333072_196102896" from="196102896" to="196096859" numLanes="1" speed="18.06" />
	<edge id="299982020_196110951_1630333072_196096859" from="196096859" to="1630333072" numLanes="1" speed="18.06" />
	<edge id="246546094_2535737102_2535737137_2535737102" from="2535737102" to="2535737129" numLanes="1" speed="8.33" />
	<edge id="246546094_2535737102_2535737137_2535737129" from="2535737129" to="2535737099" numLanes="1" speed="8.33" />
	<edge id="246546094_2535737102_2535737137_2535737099" from="2535737099" to="2535737137" numLanes="1" speed="8.33" />
	<edge id="299982020_1630333072_2535737081_1630333072" from="1630333072" to="196108277" numLanes="1" speed="18.06" />
	<edge id="299982020_1630333072_2535737081_196108277" from="196108277" to="196097938" numLanes="1" speed="18.06" />
	<edge id="299982020_1630333072_2535737081_196097938" from="196097938" to="196099421" numLanes="1" speed="18.06" />
	<edge id="299982020_1630333072_2535737081_196099421" from="196099421" to="196095530" numLanes="1" speed="18.06" />
	<edge id="299982020_1630333072_2535737081_196095530" from="196095530" to="196097007" numLanes="1" speed="18.06" />
	<edge id="299982020_1630333072_2535737081_196097007" from="196097007" to="196110503" numLanes="1" speed="18.06" />
	<edge id="299982020_1630333072_2535737081_196110503" from="196110503" to="2535737081" numLanes="1" speed="18.06" />
	<edge id="246546088_2535737113_2535737137_2535737113" from="2535737113" to="7592399640" numLanes="1" speed="8.33" />
	<edge id="246546088_2535737113_2535737137_7592399640" from="7592399640" to="2535737137" numLanes="1" speed="8.33" />
	<edge id="246546094_2535737137_2535737102_2535737137" from="2535737137" to="2535737099" numLanes="1" speed="8.33" />
	<edge id="246546094_2535737137_2535737102_2535737099" from="2535737099" to="2535737129" numLanes="1" speed="8.33" />
	<edge id="246546094_2535737137_2535737102_2535737129" from="2535737129" to="2535737102" numLanes="1" speed="8.33" />
	<edge id="246546088_2535737165_2535737128_2535737165" from="2535737165" to="2535737110" numLanes="1" speed="8.33" />
	<edge id="246546088_2535737165_2535737128_2535737110" from="2535737110" to="2535737139" numLanes="1" speed="8.33" />
	<edge id="246546088_2535737165_2535737128_2535737139" from="2535737139" to="2535737128" numLanes="1" speed="8.33" />
	<edge id="299982020_2535737066_3697032674_2535737066" from="2535737066" to="196111498" numLanes="1" speed="18.06" />
	<edge id="299982020_2535737066_3697032674_196111498" from="196111498" to="7592399225" numLanes="1" speed="18.06" />
	<edge id="299982020_2535737066_3697032674_7592399225" from="7592399225" to="196100312" numLanes="1" speed="18.06" />
	<edge id="299982020_2535737066_3697032674_196100312" from="196100312" to="196110856" numLanes="1" speed="18.06" />
	<edge id="299982020_2535737066_3697032674_196110856" from="196110856" to="7592399716" numLanes="1" speed="18.06" />
	<edge id="299982020_2535737066_3697032674_7592399716" from="7592399716" to="196101263" numLanes="1" speed="18.06" />
	<edge id="299982020_2535737066_3697032674_196101263" from="196101263" to="196100397" numLanes="1" speed="18.06" />
	<edge id="299982020_2535737066_3697032674_196100397" from="196100397" to="196111173" numLanes="1" speed="18.06" />
	<edge id="299982020_2535737066_3697032674_196111173" from="196111173" to="2592049028" numLanes="1" speed="18.06" />
	<edge id="299982020_2535737066_3697032674_2592049028" from="2592049028" to="196095107" numLanes="1" speed="18.06" />
	<edge id="299982020_2535737066_3697032674_196095107" from="196095107" to="196108871" numLanes="1" speed="18.06" />
	<edge id="299982020_2535737066_3697032674_196108871" from="196108871" to="196100138" numLanes="1" speed="18.06" />
	<edge id="299982020_2535737066_3697032674_196100138" from="196100138" to="196095966" numLanes="1" speed="18.06" />
	<edge id="299982020_2535737066_3697032674_196095966" from="196095966" to="1572967229" numLanes="1" speed="18.06" />
	<edge id="299982020_2535737066_3697032674_1572967229" from="1572967229" to="196108728" numLanes="1" speed="18.06" />
	<edge id="299982020_2535737066_3697032674_196108728" from="196108728" to="1572967212" numLanes="1" speed="18.06" />
	<edge id="299982020_2535737066_3697032674_1572967212" from="1572967212" to="3695682410" numLanes="1" speed="18.06" />
	<edge id="299982020_2535737066_3697032674_3695682410" from="3695682410" to="3695683476" numLanes="1" speed="18.06" />
	<edge id="299982020_2535737066_3697032674_3695683476" from="3695683476" to="196110612" numLanes="1" speed="18.06" />
	<edge id="299982020_2535737066_3697032674_196110612" from="196110612" to="3695683602" numLanes="1" speed="18.06" />
	<edge id="299982020_2535737066_3697032674_3695683602" from="3695683602" to="504292337" numLanes="1" speed="18.06" />
	<edge id="299982020_2535737066_3697032674_504292337" from="504292337" to="3695683615" numLanes="1" speed="18.06" />
	<edge id="299982020_2535737066_3697032674_3695683615" from="3695683615" to="3695683586" numLanes="1" speed="18.06" />
	<edge id="299982020_2535737066_3697032674_3695683586" from="3695683586" to="3695683585" numLanes="1" speed="18.06" />
	<edge id="299982020_2535737066_3697032674_3695683585" from="3695683585" to="3049340823" numLanes="1" speed="18.06" />
	<edge id="299982020_2535737066_3697032674_3049340823" from="3049340823" to="196099799" numLanes="1" speed="18.06" />
	<edge id="299982020_2535737066_3697032674_196099799" from="196099799" to="196098272" numLanes="1" speed="18.06" />
	<edge id="299982020_2535737066_3697032674_196098272" from="196098272" to="7592399341" numLanes="1" speed="18.06" />
	<edge id="299982020_2535737066_3697032674_7592399341" from="7592399341" to="1572967069" numLanes="1" speed="18.06" />
	<edge id="299982020_2535737066_3697032674_1572967069" from="1572967069" to="1572967067" numLanes="1" speed="18.06" />
	<edge id="299982020_2535737066_3697032674_1572967067" from="1572967067" to="1572967063" numLanes="1" speed="18.06" />
	<edge id="299982020_2535737066_3697032674_1572967063" from="1572967063" to="1572967052" numLanes="1" speed="18.06" />
	<edge id="299982020_2535737066_3697032674_1572967052" from="1572967052" to="3335967413" numLanes="1" speed="18.06" />
	<edge id="299982020_2535737066_3697032674_3335967413" from="3335967413" to="3335967440" numLanes="1" speed="18.06" />
	<edge id="299982020_2535737066_3697032674_3335967440" from="3335967440" to="196102388" numLanes="1" speed="18.06" />
	<edge id="299982020_2535737066_3697032674_196102388" from="196102388" to="3335967446" numLanes="1" speed="18.06" />
	<edge id="299982020_2535737066_3697032674_3335967446" from="3335967446" to="3335967423" numLanes="1" speed="18.06" />
	<edge id="299982020_2535737066_3697032674_3335967423" from="3335967423" to="3049338241" numLanes="1" speed="18.06" />
	<edge id="299982020_2535737066_3697032674_3049338241" from="3049338241" to="3049338240" numLanes="1" speed="18.06" />
	<edge id="299982020_2535737066_3697032674_3049338240" from="3049338240" to="3049338239" numLanes="1" speed="18.06" />
	<edge id="299982020_2535737066_3697032674_3049338239" from="3049338239" to="3697032674" numLanes="1" speed="18.06" />
	<edge id="246546096_2535737114_2535737176_2535737114" from="2535737114" to="2535737176" numLanes="1" speed="8.33" />
	<edge id="442653926_2535737153_2535737093_2535737153" from="2535737153" to="2535737093" numLanes="1" speed="8.33" />
	<edge id="246546101_2535737130_2535737102_2535737130" from="2535737130" to="2535737086" numLanes="1" speed="8.33" />
	<edge id="246546101_2535737130_2535737102_2535737086" from="2535737086" to="2535737156" numLanes="1" speed="8.33" />
	<edge id="246546101_2535737130_2535737102_2535737156" from="2535737156" to="2535737095" numLanes="1" speed="8.33" />
	<edge id="246546101_2535737130_2535737102_2535737095" from="2535737095" to="2535737119" numLanes="1" speed="8.33" />
	<edge id="246546101_2535737130_2535737102_2535737119" from="2535737119" to="2535737105" numLanes="1" speed="8.33" />
	<edge id="246546101_2535737130_2535737102_2535737105" from="2535737105" to="2535737091" numLanes="1" speed="8.33" />
	<edge id="246546101_2535737130_2535737102_2535737091" from="2535737091" to="2535737102" numLanes="1" speed="8.33" />
	<edge id="246546097_2535737162_2535737144_2535737162" from="2535737162" to="2535737098" numLanes="1" speed="8.33" />
	<edge id="246546097_2535737162_2535737144_2535737098" from="2535737098" to="2535737112" numLanes="1" speed="8.33" />
	<edge id="246546097_2535737162_2535737144_2535737112" from="2535737112" to="2535737109" numLanes="1" speed="8.33" />
	<edge id="246546097_2535737162_2535737144_2535737109" from="2535737109" to="2535737141" numLanes="1" speed="8.33" />
	<edge id="246546097_2535737162_2535737144_2535737141" from="2535737141" to="2535737149" numLanes="1" speed="8.33" />
	<edge id="246546097_2535737162_2535737144_2535737149" from="2535737149" to="2535737158" numLanes="1" speed="8.33" />
	<edge id="246546097_2535737162_2535737144_2535737158" from="2535737158" to="2535737148" numLanes="1" speed="8.33" />
	<edge id="246546097_2535737162_2535737144_2535737148" from="2535737148" to="2535737104" numLanes="1" speed="8.33" />
	<edge id="246546097_2535737162_2535737144_2535737104" from="2535737104" to="2535737181" numLanes="1" speed="8.33" />
	<edge id="246546097_2535737162_2535737144_2535737181" from="2535737181" to="2535737180" numLanes="1" speed="8.33" />
	<edge id="246546097_2535737162_2535737144_2535737180" from="2535737180" to="2535737100" numLanes="1" speed="8.33" />
	<edge id="246546097_2535737162_2535737144_2535737100" from="2535737100" to="2535737144" numLanes="1" speed="8.33" />
	<edge id="246546100_2535737096_2535737068_2535737096" from="2535737096" to="2535737108" numLanes="1" speed="8.33" />
	<edge id="246546100_2535737096_2535737068_2535737108" from="2535737108" to="2535737103" numLanes="1" speed="8.33" />
	<edge id="246546100_2535737096_2535737068_2535737103" from="2535737103" to="2535737166" numLanes="1" speed="8.33" />
	<edge id="246546100_2535737096_2535737068_2535737166" from="2535737166" to="2535737083" numLanes="1" speed="8.33" />
	<edge id="246546100_2535737096_2535737068_2535737083" from="2535737083" to="2535737132" numLanes="1" speed="8.33" />
	<edge id="246546100_2535737096_2535737068_2535737132" from="2535737132" to="2535737068" numLanes="1" speed="8.33" />
	<edge id="246546100_2535737120_2535737068_2535737120" from="2535737120" to="2535737068" numLanes="1" speed="8.33" />
	<edge id="246546817_2535743418_2535743431_2535743418" from="2535743418" to="2535743417" numLanes="1" speed="8.33" />
	<edge id="246546817_2535743418_2535743431_2535743417" from="2535743417" to="7592399679" numLanes="1" speed="8.33" />
	<edge id="246546817_2535743418_2535743431_7592399679" from="7592399679" to="2535743430" numLanes="1" speed="8.33" />
	<edge id="246546817_2535743418_2535743431_2535743430" from="2535743430" to="2535743431" numLanes="1" speed="8.33" />
	<edge id="246546089_2535737079_2535737062_2535737079" from="2535737079" to="2535737069" numLanes="2" speed="8.33" />
	<edge id="246546089_2535737079_2535737062_2535737069" from="2535737069" to="2535737127" numLanes="2" speed="8.33" />
	<edge id="246546089_2535737079_2535737062_2535737127" from="2535737127" to="2535737177" numLanes="2" speed="8.33" />
	<edge id="246546089_2535737079_2535737062_2535737177" from="2535737177" to="2535737169" numLanes="2" speed="8.33" />
	<edge id="246546089_2535737079_2535737062_2535737169" from="2535737169" to="2535737111" numLanes="2" speed="8.33" />
	<edge id="246546089_2535737079_2535737062_2535737111" from="2535737111" to="2535737143" numLanes="2" speed="8.33" />
	<edge id="246546089_2535737079_2535737062_2535737143" from="2535737143" to="2535737062" numLanes="2" speed="8.33" />
	<edge id="246546093_2535737075_2535737079_2535737075" from="2535737075" to="2535737087" numLanes="1" speed="8.33" />
	<edge id="246546093_2535737075_2535737079_2535737087" from="2535737087" to="2535737140" numLanes="1" speed="8.33" />
	<edge id="246546093_2535737075_2535737079_2535737140" from="2535737140" to="2535737079" numLanes="1" speed="8.33" />
	<edge id="246546090_2535737107_2535737116_2535737107" from="2535737107" to="2535737134" numLanes="2" speed="8.33" />
	<edge id="246546090_2535737107_2535737116_2535737134" from="2535737134" to="2535737135" numLanes="2" speed="8.33" />
	<edge id="246546090_2535737107_2535737116_2535737135" from="2535737135" to="2535737178" numLanes="2" speed="8.33" />
	<edge id="246546090_2535737107_2535737116_2535737178" from="2535737178" to="2535737121" numLanes="2" speed="8.33" />
	<edge id="246546090_2535737107_2535737116_2535737121" from="2535737121" to="2535737163" numLanes="2" speed="8.33" />
	<edge id="246546090_2535737107_2535737116_2535737163" from="2535737163" to="2535737116" numLanes="2" speed="8.33" />
	<edge id="246546105_2535737172_2535737162_2535737172" from="2535737172" to="2535737162" numLanes="1" speed="8.33" />
	<edge id="246546100_2535737068_2535737120_2535737068" from="2535737068" to="2535737120" numLanes="1" speed="8.33" />
	<edge id="246546104_2535737165_2535737120_2535737165" from="2535737165" to="2535737077" numLanes="1" speed="8.33" />
	<edge id="246546104_2535737165_2535737120_2535737077" from="2535737077" to="2535737067" numLanes="1" speed="8.33" />
	<edge id="246546104_2535737165_2535737120_2535737067" from="2535737067" to="2535737151" numLanes="1" speed="8.33" />
	<edge id="246546104_2535737165_2535737120_2535737151" from="2535737151" to="2535737120" numLanes="1" speed="8.33" />
	<edge id="246546095_2535737101_2535737096_2535737101" from="2535737101" to="2535737065" numLanes="1" speed="8.33" />
	<edge id="246546095_2535737101_2535737096_2535737065" from="2535737065" to="2535737123" numLanes="1" speed="8.33" />
	<edge id="246546095_2535737101_2535737096_2535737123" from="2535737123" to="2535737096" numLanes="1" speed="8.33" />
	<edge id="246546088_2535743431_2535737075_2535743431" from="2535743431" to="2535737075" numLanes="1" speed="8.33" />
	<edge id="150111131_1630333072_2535737145_1630333072" from="1630333072" to="2535737145" numLanes="1" speed="8.33" />
	<edge id="711516152_6689631391_6689631392_6689631391" from="6689631391" to="6689631392" numLanes="1" speed="8.33" />
	<edge id="246546097_2535737144_2535737085_2535737144" from="2535737144" to="2535737085" numLanes="1" speed="8.33" />
	<edge id="246546093_2535737128_2535737170_2535737128" from="2535737128" to="2535737170" numLanes="1" speed="8.33" />
	<edge id="246546099_2535737068_2535737128_2535737068" from="2535737068" to="2535737133" numLanes="1" speed="8.33" />
	<edge id="246546099_2535737068_2535737128_2535737133" from="2535737133" to="2535737128" numLanes="1" speed="8.33" />
	<edge id="246546093_2535737170_2535737128_2535737170" from="2535737170" to="2535737128" numLanes="1" speed="8.33" />
	<edge id="246546096_2535737171_2535737176_2535737171" from="2535737171" to="2535737176" numLanes="1" speed="8.33" />
	<edge id="246546088_2535737145_2535737130_2535737145" from="2535737145" to="2535737073" numLanes="1" speed="8.33" />
	<edge id="246546088_2535737145_2535737130_2535737073" from="2535737073" to="2535737125" numLanes="1" speed="8.33" />
	<edge id="246546088_2535737145_2535737130_2535737125" from="2535737125" to="2535737076" numLanes="1" speed="8.33" />
	<edge id="246546088_2535737145_2535737130_2535737076" from="2535737076" to="2535737138" numLanes="1" speed="8.33" />
	<edge id="246546088_2535737145_2535737130_2535737138" from="2535737138" to="2535737130" numLanes="1" speed="8.33" />
	<edge id="246546088_2535743431_2535737128_2535743431" from="2535743431" to="2535737136" numLanes="1" speed="8.33" />
	<edge id="246546088_2535743431_2535737128_2535737136" from="2535737136" to="7592399682" numLanes="1" speed="8.33" />
	<edge id="246546088_2535743431_2535737128_7592399682" from="7592399682" to="2535737126" numLanes="1" speed="8.33" />
	<edge id="246546088_2535743431_2535737128_2535737126" from="2535737126" to="7592399712" numLanes="1" speed="8.33" />
	<edge id="246546088_2535743431_2535737128_7592399712" from="7592399712" to="2535737128" numLanes="1" speed="8.33" />
	<edge id="246546105_2535737162_2535737172_2535737162" from="2535737162" to="2535737172" numLanes="1" speed="8.33" />
	<edge id="246546100_2535737096_2535737080_2535737096" from="2535737096" to="2535737089" numLanes="1" speed="8.33" />
	<edge id="246546100_2535737096_2535737080_2535737089" from="2535737089" to="2535737155" numLanes="1" speed="8.33" />
	<edge id="246546100_2535737096_2535737080_2535737155" from="2535737155" to="2535737080" numLanes="1" speed="8.33" />
	<edge id="150111131_2535737145_6689631391_2535737145" from="2535737145" to="1935599514" numLanes="1" speed="8.33" />
	<edge id="150111131_2535737145_6689631391_1935599514" from="1935599514" to="1630333074" numLanes="1" speed="8.33" />
	<edge id="150111131_2535737145_6689631391_1630333074" from="1630333074" to="6689631391" numLanes="1" speed="8.33" />
	<edge id="299982020_3697032674_2535737066_3697032674" from="3697032674" to="3049338239" numLanes="1" speed="18.06" />
	<edge id="299982020_3697032674_2535737066_3049338239" from="3049338239" to="3049338240" numLanes="1" speed="18.06" />
	<edge id="299982020_3697032674_2535737066_3049338240" from="3049338240" to="3049338241" numLanes="1" speed="18.06" />
	<edge id="299982020_3697032674_2535737066_3049338241" from="3049338241" to="3335967423" numLanes="1" speed="18.06" />