<connections>
	<connection from="299982020_2535737066_2535737160_2535737066" to="299982020_2535737160_2535737081_2535737160" />
	<connection from="299982020_2535737066_2535737160_2535737066" to="246546090_2535737160_2535737107_2535737160" />
	<connection from="299982020_2535737066_2535737160_2535737066" to="299982020_2535737160_2535737066_2535737160" />
	<connection from="246546105_2535737085_2535737084_2535737085" to="246546102_2535737084_2535737182_2535737084" />
	<connection from="246546105_2535737085_2535737084_2535737085" to="246546105_2535737084_2535737085_2535737084" />
	<connection from="246546105_2535737085_2535737084_2535737085" to="246546105_2535737084_2535737162_2535737084" />
	<connection from="169852530_1810117325_2535743428_1810117325" to="169852530_1810117325_2535743428_1810117304" />
	<connection from="169852530_1810117325_2535743428_1810117304" to="169852530_1810117325_2535743428_1810117359" />
	<connection from="169852530_1810117325_2535743428_1810117359" to="169852530_1810117325_2535743428_1810117287" />
	<connection from="169852530_1810117325_2535743428_1810117287" to="169852530_1810117325_2535743428_1810117281" />
	<connection from="169852530_1810117325_2535743428_1810117281" to="169852530_1810117325_2535743428_1810117379" />
	<connection from="169852530_1810117325_2535743428_1810117379" to="169852530_1810117325_2535743428_1810117355" />
	<connection from="169852530_1810117325_2535743428_1810117355" to="169852530_1810117325_2535743428_1810117295" />
	<connection from="169852530_1810117325_2535743428_1810117295" to="169852530_1810117325_2535743428_1810117277" />
	<connection from="169852530_1810117325_2535743428_1810117277" to="169852530_1810117325_2535743428_1810117374" />
	<connection from="169852530_1810117325_2535743428_1810117374" to="169852530_1810117325_2535743428_1810117270" />
	<connection from="169852530_1810117325_2535743428_1810117270" to="169852530_1810117325_2535743428_1810117271" />
	<connection from="169852530_1810117325_2535743428_1810117271" to="169852530_2535743428_1810117325_2535743428" />
	<connection from="246546104_2535737120_2535737179_2535737120" to="246546104_2535737120_2535737179_2535737150" />
	<connection from="246546104_2535737120_2535737179_2535737150" to="246546088_2535737179_2535737165_2535737179" />
	<connection from="246546104_2535737120_2535737179_2535737150" to="246546088_2535737179_2535737113_2535737179" />
	<connection from="246546104_2535737120_2535737179_2535737150" to="246546104_2535737179_2535737120_2535737179" />
	<connection from="150111131_1810117325_1630333087_1810117325" to="150111131_1810117325_1630333087_1630333094" />
	<connection from="150111131_1810117325_1630333087_1630333094" to="150111131_1810117325_1630333087_1630333080" />
	<connection from="150111131_1810117325_1630333087_1630333080" to="150111131_1810117325_1630333087_1630333084" />
	<connection from="150111131_1810117325_1630333087_1630333084" to="150111131_1810117325_1630333087_1630333077" />
	<connection from="150111131_1810117325_1630333087_1630333077" to="150111131_1810117325_1630333087_1630333091" />
	<connection from="150111131_1810117325_1630333087_1630333091" to="150111131_1630333087_1810117325_1630333087" />
	<connection from="150111131_1810117325_1630333087_1630333091" to="711516153_1630333087_6689631392_1630333087" />
	<connection from="150111131_6689631391_2535737145_6689631391" to="150111131_6689631391_2535737145_1630333074" />
	<connection from="150111131_6689631391_2535737145_1630333074" to="150111131_6689631391_2535737145_1935599514" />
	<connection from="150111131_6689631391_2535737145_1935599514" to="150111131_2535737145_6689631391_2535737145" />
	<connection from="150111131_6689631391_2535737145_1935599514" to="246546088_2535737145_2535737130_2535737145" />
	<connection from="150111131_6689631391_2535737145_1935599514" to="150111131_2535737145_1630333072_2535737145" />
	<connection from="246546088_2535737130_2535737145_2535737130" to="246546088_2535737130_2535737145_2535737138" />
	<connection from="246546088_2535737130_2535737145_2535737138" to="246546088_2535737130_2535737145_2535737076" />
	<connection from="246546088_2535737130_2535737145_2535737076" to="246546088_2535737130_2535737145_2535737125" />
	<connection from="246546088_2535737130_2535737145_2535737125" to="246546088_2535737130_2535737145_2535737073" />
	<connection from="246546088_2535737130_2535737145_2535737073" to="150111131_2535737145_6689631391_2535737145" />
	<connection from="246546088_2535737130_2535737145_2535737073" to="246546088_2535737145_2535737130_2535737145" />
	<connection from="246546088_2535737130_2535737145_2535737073" to="150111131_2535737145_1630333072_2535737145" />
	<connection from="299982020_2535737081_1630333072_2535737081" to="299982020_2535737081_1630333072_196110503" />
	<connection from="299982020_2535737081_1630333072_196110503" to="299982020_2535737081_1630333072_196097007" />
	<connection from="299982020_2535737081_1630333072_196097007" to="299982020_2535737081_1630333072_196095530" />
	<connection from="299982020_2535737081_1630333072_196095530" to="299982020_2535737081_1630333072_196099421" />
	<connection from="299982020_2535737081_1630333072_196099421" to="299982020_2535737081_1630333072_196097938" />
	<connection from="299982020_2535737081_1630333072_196097938" to="299982020_2535737081_1630333072_196108277" />
	<connection from="299982020_2535737081_1630333072_196108277" to="299982020_1630333072_2535737081_1630333072" />
	<connection from="299982020_2535737081_1630333072_196108277" to="299982020_1630333072_196110951_1630333072" />
	<connection from="299982020_2535737081_1630333072_196108277" to="150111131_1630333072_2535737145_1630333072" />
	<connection from="246546097_2535737153_2535737161_2535737153" to="246546097_2535737153_2535737161_2535737173" />
	<connection from="246546097_2535737153_2535737161_2535737173" to="246546103_2535737161_2535737093_2535737161" />
	<connection from="246546097_2535737153_2535737161_2535737173" to="246546097_2535737161_2535737153_2535737161" />
	<connection from="246546097_2535737153_2535737161_2535737173" to="246546097_2535737161_2535737085_2535737161" />
	<connection from="246546093_2535737094_2535737106_2535737094" to="246546093_2535737094_2535737106_2535737115" />
	<connection from="246546093_2535737094_2535737106_2535737115" to="246546093_2535737094_2535737106_2535737154" />
	<connection from="246546093_2535737094_2535737106_2535737154" to="246546093_2535737094_2535737106_2535737175" />
	<connection from="246546093_2535737094_2535737106_2535737175" to="246546093_2535737094_2535737106_2535737167" />
	<connection from="246546093_2535737094_2535737106_2535737167" to="246546093_2535737094_2535737106_2535737159" />
	<connection from="246546093_2535737094_2535737106_2535737159" to="246546093_2535737106_2535737094_2535737106" />
	<connection from="246546093_2535737094_2535737106_2535737159" to="246546093_2535737106_2535737063_2535737106" />
	<connection from="246546093_2535737094_2535737106_2535737159" to="246546814_2535737106_2535743410_2535737106" />
	<connection from="711516153_1630333087_6689631392_1630333087" to="711516153_1630333087_6689631392_6689631405" />
	<connection from="711516153_1630333087_6689631392_6689631405" to="711516153_1630333087_6689631392_6689631404" />
	<connection from="711516153_1630333087_6689631392_6689631404" to="711516153_1630333087_6689631392_6689631403" />
	<connection from="711516153_1630333087_6689631392_6689631403" to="711516153_1630333087_6689631392_6689631402" />
	<connection from="711516153_1630333087_6689631392_6689631402" to="711516153_1630333087_6689631392_6689631401" />
	<connection from="711516153_1630333087_6689631392_6689631401" to="711516153_1630333087_6689631392_6689631406" />
	<connection from="711516153_1630333087_6689631392_6689631406" to="711516152_6689631392_6689631391_6689631392" />
	<connection from="711516153_1630333087_6689631392_6689631406" to="711516153_6689631392_1630333087_6689631392" />
	<connection from="299982020_2535737160_2535737066_2535737160" to="299982020_2535737066_2535737160_2535737066" />
	<connection from="299982020_2535737160_2535737066_2535737160" to="299982020_2535737066_3697032674_2535737066" />
	<connection from="711516152_6689631392_6689631391_6689631392" to="150111131_6689631391_1810117325_6689631391" />
	<connection from="711516152_6689631392_6689631391_6689631392" to="150111131_6689631391_2535737145_6689631391" />
	<connection from="711516152_6689631392_6689631391_6689631392" to="711516152_6689631391_6689631392_6689631391" />
	<connection from="246546818_2535743436_2535737063_2535743436" to="246546818_2535743436_2535737063_2535743422" />
	<connection from="246546818_2535743436_2535737063_2535743422" to="246546093_2535737063_2535737106_2535737063" />
	<connection from="246546818_2535743436_2535737063_2535743422" to="246546093_2535737063_2535737172_2535737063" />
	<connection from="246546818_2535743436_2535737063_2535743422" to="246546818_2535737063_2535743436_2535737063" />
	<connection from="246546103_2535737093_2535737161_2535737093" to="246546103_2535737093_2535737161_2535737070" />
	<connection from="246546103_2535737093_2535737161_2535737070" to="246546103_2535737093_2535737161_2535737122" />
	<connection from="246546103_2535737093_2535737161_2535737122" to="246546103_2535737161_2535737093_2535737161" />
	<connection from="246546103_2535737093_2535737161_2535737122" to="246546097_2535737161_2535737153_2535737161" />
	<connection from="246546103_2535737093_2535737161_2535737122" to="246546097_2535737161_2535737085_2535737161" />
	<connection from="361785873_2535737062_2535737160_2535737062" to="361785873_2535737062_2535737160_2535737152" />
	<connection from="361785873_2535737062_2535737160_2535737152" to="299982020_2535737160_2535737081_2535737160" />
	<connection from="361785873_2535737062_2535737160_2535737152" to="246546090_2535737160_2535737107_2535737160" />
	<connection from="361785873_2535737062_2535737160_2535737152" to="299982020_2535737160_2535737066_2535737160" />
	<connection from="246546817_2535743431_2535743418_2535743431" to="246546817_2535743431_2535743418_2535743430" />
	<connection from="246546817_2535743431_2535743418_2535743430" to="246546817_2535743431_2535743418_7592399679" />
	<connection from="246546817_2535743431_2535743418_7592399679" to="246546817_2535743431_2535743418_2535743417" />
	<connection from="246546817_2535743431_2535743418_2535743417" to="246546817_2535743418_2535743431_2535743418" />
	<connection from="246546093_2535737106_2535737063_2535737106" to="246546093_2535737106_2535737063_2535737147" />
	<connection from="246546093_2535737106_2535737063_2535737147" to="246546093_2535737063_2535737106_2535737063" />
	<connection from="246546093_2535737106_2535737063_2535737147" to="246546093_2535737063_2535737172_2535737063" />
	<connection from="246546093_2535737106_2535737063_2535737147" to="246546818_2535737063_2535743436_2535737063" />
	<connection from="246546104_2535737120_2535737165_2535737120" to="246546104_2535737120_2535737165_2535737151" />
	<connection from="246546104_2535737120_2535737165_2535737151" to="246546104_2535737120_2535737165_2535737067" />
	<connection from="246546104_2535737120_2535737165_2535737067" to="246546104_2535737120_2535737165_2535737077" />
	<connection from="246546104_2535737120_2535737165_2535737077" to="246546104_2535737165_2535737120_2535737165" />
	<connection from="246546104_2535737120_2535737165_2535737077" to="246546088_2535737165_2535737179_2535737165" />
	<connection from="246546104_2535737120_2535737165_2535737077" to="246546088_2535737165_2535737128_2535737165" />
	<connection from="246546100_2535737068_2535737096_2535737068" to="246546100_2535737068_2535737096_2535737132" />
	<connection from="246546100_2535737068_2535737096_2535737132" to="246546100_2535737068_2535737096_2535737083" />
	<connection from="246546100_2535737068_2535737096_2535737083" to="246546100_2535737068_2535737096_2535737166" />
	<connection from="246546100_2535737068_2535737096_2535737166" to="246546100_2535737068_2535737096_2535737103" />
	<connection from="246546100_2535737068_2535737096_2535737103" to="246546100_2535737068_2535737096_2535737108" />
	<connection from="246546100_2535737068_2535737096_2535737108" to="246546100_2535737096_2535737080_2535737096" />
	<connection from="246546100_2535737068_2535737096_2535737108" to="246546100_2535737096_2535737068_2535737096" />
	<connection from="246546100_2535737068_2535737096_2535737108" to="246546095_2535737096_2535737101_2535737096" />
	<connection from="299982020_196110951_1630333072_196110951" to="299982020_196110951_1630333072_7209764968" />
	<connection from="299982020_196110951_1630333072_7209764968" to="299982020_196110951_1630333072_1974483042" />
	<connection from="299982020_196110951_1630333072_1974483042" to="299982020_196110951_1630333072_3076881229" />
	<connection from="299982020_196110951_1630333072_3076881229" to="299982020_196110951_1630333072_7209772862" />
	<connection from="299982020_196110951_1630333072_7209772862" to="299982020_196110951_1630333072_7209772865" />
	<connection from="299982020_196110951_1630333072_7209772865" to="299982020_196110951_1630333072_196099513" />
	<connection from="299982020_196110951_1630333072_196099513" to="299982020_196110951_1630333072_196099239" />
	<connection from="299982020_196110951_1630333072_196099239" to="299982020_196110951_1630333072_196098734" />
	<connection from="299982020_196110951_1630333072_196098734" to="299982020_196110951_1630333072_196098453" />
	<connection from="299982020_196110951_1630333072_196098453" to="299982020_196110951_1630333072_196095767" />
	<connection from="299982020_196110951_1630333072_196095767" to="299982020_196110951_1630333072_196110343" />
	<connection from="299982020_196110951_1630333072_196110343" to="299982020_196110951_1630333072_196108605" />
	<connection from="299982020_196110951_1630333072_196108605" to="299982020_196110951_1630333072_196101282" />
	<connection from="299982020_196110951_1630333072_196101282" to="299982020_196110951_1630333072_196111442" />
	<connection from="299982020_196110951_1630333072_196111442" to="299982020_196110951_1630333072_7592450106" />
	<connection from="299982020_196110951_1630333072_7592450106" to="299982020_196110951_1630333072_196109046" />
	<connection from="299982020_196110951_1630333072_196109046" to="299982020_196110951_1630333072_196112204" />
	<connection from="299982020_196110951_1630333072_196112204" to="299982020_196110951_1630333072_196102287" />
	<connection from="299982020_196110951_1630333072_196102287" to="299982020_196110951_1630333072_196100202" />
	<connection from="299982020_196110951_1630333072_196100202" to="299982020_196110951_1630333072_196109380" />
	<connection from="299982020_196110951_1630333072_196109380" to="299982020_196110951_1630333072_196110920" />
	<connection from="299982020_196110951_1630333072_196110920" to="299982020_196110951_1630333072_196100346" />
	<connection from="299982020_196110951_1630333072_196100346" to="299982020_196110951_1630333072_196096638" />
	<connection from="299982020_196110951_1630333072_196096638" to="299982020_196110951_1630333072_196110247" />
	<connection from="299982020_196110951_1630333072_196110247" to="299982020_196110951_1630333072_196094453" />
	<connection from="299982020_196110951_1630333072_196094453" to="299982020_196110951_1630333072_196110077" />
	<connection from="299982020_196110951_1630333072_196110077" to="299982020_196110951_1630333072_196111663" />
	<connection from="299982020_196110951_1630333072_196111663" to="299982020_196110951_1630333072_196095702" />
	<connection from="299982020_196110951_1630333072_196095702" to="299982020_196110951_1630333072_196094999" />
	<connection from="299982020_196110951_1630333072_196094999" to="299982020_196110951_1630333072_196102896" />
	<connection from="299982020_196110951_1630333072_196102896" to="299982020_196110951_1630333072_196096859" />
	<connection from="299982020_196110951_1630333072_196096859" to="299982020_1630333072_2535737081_1630333072" />
	<connection from="299982020_196110951_1630333072_196096859" to="299982020_1630333072_196110951_1630333072" />
	<connection from="299982020_196110951_1630333072_196096859" to="150111131_1630333072_2535737145_1630333072" />
	<connection from="246546094_2535737102_2535737137_2535737102" to="246546094_2535737102_2535737137_2535737129" />
	<connection from="246546094_2535737102_2535737137_2535737129" to="246546094_2535737102_2535737137_2535737099" />
	<connection from="246546094_2535737102_2535737137_2535737099" to="246546088_2535737137_2535737130_2535737137" />
	<connection from="246546094_2535737102_2535737137_2535737099" to="246546094_2535737137_2535737102_2535737137" />
	<connection from="246546094_2535737102_2535737137_2535737099" to="246546088_2535737137_2535737113_2535737137" />
	<connection from="299982020_1630333072_2535737081_1630333072" to="299982020_1630333072_2535737081_196108277" />
	<connection from="299982020_1630333072_2535737081_196108277" to="299982020_1630333072_2535737081_196097938" />
	<connection from="299982020_1630333072_2535737081_196097938" to="299982020_1630333072_2535737081_196099421" />
	<connection from="299982020_1630333072_2535737081_196099421" to="299982020_1630333072_2535737081_196095530" />
	<connection from="299982020_1630333072_2535737081_196095530" to="299982020_1630333072_2535737081_196097007" />
	<connection from="299982020_1630333072_2535737081_196097007" to="299982020_1630333072_2535737081_196110503" />
	<connection from="299982020_1630333072_2535737081_196110503" to="246546091_2535737081_2535737107_2535737081" />
	<connection from="299982020_1630333072_2535737081_196110503" to="299982020_2535737081_2535737160_2535737081" />
	<connection from="299982020_1630333072_2535737081_196110503" to="299982020_2535737081_1630333072_2535737081" />
	<connection from="246546088_2535737113_2535737137_2535737113" to="246546088_2535737113_2535737137_7592399640" />
	<connection from="246546088_2535737113_2535737137_7592399640" to="246546088_2535737137_2535737130_2535737137" />
	<connection from="246546088_2535737113_2535737137_7592399640" to="246546094_2535737137_2535737102_2535737137" />
	<connection from="246546088_2535737113_2535737137_7592399640" to="246546088_2535737137_2535737113_2535737137" />
	<connection from="246546094_2535737137_2535737102_2535737137" to="246546094_2535737137_2535737102_2535737099" />
	<connection from="246546094_2535737137_2535737102_2535737099" to="246546094_2535737137_2535737102_2535737129" />
	<connection from="246546094_2535737137_2535737102_2535737129" to="246546101_2535737102_2535737130_2535737102" />
	<connection from="246546094_2535737137_2535737102_2535737129" to="246546094_2535737102_2535737137_2535737102" />
	<connection from="246546094_2535737137_2535737102_2535737129" to="246546094_2535737102_2535737113_2535737102" />
	<connection from="246546088_2535737165_2535737128_2535737165" to="246546088_2535737165_2535737128_2535737110" />
	<connection from="246546088_2535737165_2535737128_2535737110" to="246546088_2535737165_2535737128_2535737139" />
	<connection from="246546088_2535737165_2535737128_2535737139" to="246546088_2535737128_2535743431_2535737128" />
	<connection from="246546088_2535737165_2535737128_2535737139" to="246546088_2535737128_2535737165_2535737128" />
	<connection from="246546088_2535737165_2535737128_2535737139" to="246546093_2535737128_2535737170_2535737128" />
	<connection from="246546088_2535737165_2535737128_2535737139" to="246546099_2535737128_2535737068_2535737128" />
	<connection from="299982020_2535737066_3697032674_2535737066" to="299982020_2535737066_3697032674_196111498" />
	<connection from="299982020_2535737066_3697032674_196111498" to="299982020_2535737066_3697032674_7592399225" />
	<connection from="299982020_2535737066_3697032674_7592399225" to="299982020_2535737066_3697032674_196100312" />
	<connection from="299982020_2535737066_3697032674_196100312" to="299982020_2535737066_3697032674_196110856" />
	<connection from="299982020_2535737066_3697032674_196110856" to="299982020_2535737066_3697032674_7592399716" />
	<connection from="299982020_2535737066_3697032674_7592399716" to="299982020_2535737066_3697032674_196101263" />
	<connection from="299982020_2535737066_3697032674_196101263" to="299982020_2535737066_3697032674_196100397" />
	<connection from="299982020_2535737066_3697032674_196100397" to="299982020_2535737066_3697032674_196111173" />
	<connection from="299982020_2535737066_3697032674_196111173" to="299982020_2535737066_3697032674_2592049028" />
	<connection from="299982020_2535737066_3697032674_2592049028" to="299982020_2535737066_3697032674_196095107" />
	<connection from="299982020_2535737066_3697032674_196095107" to="299982020_2535737066_3697032674_196108871" />
	<connection from="299982020_2535737066_3697032674_196108871" to="299982020_2535737066_3697032674_196100138" />
	<connection from="299982020_2535737066_3697032674_196100138" to="299982020_2535737066_3697032674_196095966" />
	<connection from="299982020_2535737066_3697032674_196095966" to="299982020_2535737066_3697032674_1572967229" />
	<connection from="299982020_2535737066_3697032674_1572967229" to="299982020_2535737066_3697032674_196108728" />
	<connection from="299982020_2535737066_3697032674_196108728" to="299982020_2535737066_3697032674_1572967212" />
	<connection from="299982020_2535737066_3697032674_1572967212" to="299982020_2535737066_3697032674_3695682410" />
	<connection from="299982020_2535737066_3697032674_3695682410" to="299982020_2535737066_3697032674_3695683476" />
	<connection from="299982020_2535737066_3697032674_3695683476" to="299982020_2535737066_3697032674_196110612" />
	<connection from="299982020_2535737066_3697032674_196110612" to="299982020_2535737066_3697032674_3695683602" />
	<connection from="299982020_2535737066_3697032674_3695683602" to="299982020_2535737066_3697032674_504292337" />
	<connection from="299982020_2535737066_3697032674_504292337" to="299982020_2535737066_3697032674_3695683615" />
	<connection from="299982020_2535737066_3697032674_3695683615" to="299982020_2535737066_3697032674_3695683586" />
	<connection from="299982020_2535737066_3697032674_3695683586" to="299982020_2535737066_3697032674_3695683585" />
	<connection from="299982020_2535737066_3697032674_3695683585" to="299982020_2535737066_3697032674_3049340823" />
	<connection from="299982020_2535737066_3697032674_3049340823" to="299982020_2535737066_3697032674_196099799" />
	<connection from="299982020_2535737066_3697032674_196099799" to="299982020_2535737066_3697032674_196098272" />
	<connection from="299982020_2535737066_3697032674_196098272" to="299982020_2535737066_3697032674_7592399341" />
	<connection from="299982020_2535737066_3697032674_7592399341" to="299982020_2535737066_3697032674_1572967069" />
	<connection from="299982020_2535737066_3697032674_1572967069" to="299982020_2535737066_3697032674_1572967067" />
	<connection from="299982020_2535737066_3697032674_1572967067" to="299982020_2535737066_3697032674_1572967063" />
	<connection from="299982020_2535737066_3697032674_1572967063" to="299982020_2535737066_3697032674_1572967052" />
	<connection from="299982020_2535737066_3697032674_1572967052" to="299982020_2535737066_3697032674_3335967413" />
	<connection from="299982020_2535737066_3697032674_3335967413" to="299982020_2535737066_3697032674_3335967440" />
	<connection from="299982020_2535737066_3697032674_3335967440" to="299982020_2535737066_3697032674_196102388" />
	<connection from="299982020_2535737066_3697032674_196102388" to="299982020_2535737066_3697032674_3335967446" />
	<connection from="299982020_2535737066_3697032674_3335967446" to="299982020_2535737066_3697032674_3335967423" />
	<connection from="299982020_2535737066_3697032674_3335967423" to="299982020_2535737066_3697032674_3049338241" />
	<connection from="299982020_2535737066_3697032674_3049338241" to="299982020_2535737066_3697032674_3049338240" />
	<connection from="299982020_2535737066_3697032674_3049338240" to="299982020_2535737066_3697032674_3049338239" />
	<connection from="299982020_2535737066_3697032674_3049338239" to="299982020_3697032674_2535737066_3697032674" />
	<connection from="246546096_2535737114_2535737176_2535737114" to="246546096_2535737176_2535737114_2535737176" />
	<connection from="246546096_2535737114_2535737176_2535737114" to="246546098_2535737176_2535737170_2535737176" />
	<connection from="246546096_2535737114_2535737176_2535737114" to="246546096_2535737176_2535737171_2535737176" />
	<connection from="442653926_2535737153_2535737093_2535737153" to="442653926_2535737093_2535737153_2535737093" />
	<connection from="442653926_2535737153_2535737093_2535737153" to="442653926_2535737093_2535737144_2535737093" />
	<connection from="442653926_2535737153_2535737093_2535737153" to="246546103_2535737093_2535737161_2535737093" />
	<connection from="246546101_2535737130_2535737102_2535737130" to="246546101_2535737130_2535737102_2535737086" />
	<connection from="246546101_2535737130_2535737102_2535737086" to="246546101_2535737130_2535737102_2535737156" />
	<connection from="246546101_2535737130_2535737102_2535737156" to="246546101_2535737130_2535737102_2535737095" />
	<connection from="246546101_2535737130_2535737102_2535737095" to="246546101_2535737130_2535737102_2535737119" />
	<connection from="246546101_2535737130_2535737102_2535737119" to="246546101_2535737130_2535737102_2535737105" />
	<connection from="246546101_2535737130_2535737102_2535737105" to="246546101_2535737130_2535737102_2535737091" />
	<connection from="246546101_2535737130_2535737102_2535737091" to="246546101_2535737102_2535737130_2535737102" />
	<connection from="246546101_2535737130_2535737102_2535737091" to="246546094_2535737102_2535737137_2535737102" />
	<connection from="246546101_2535737130_2535737102_2535737091" to="246546094_2535737102_2535737113_2535737102" />
	<connection from="246546097_2535737162_2535737144_2535737162" to="246546097_2535737162_2535737144_2535737098" />
	<connection from="246546097_2535737162_2535737144_2535737098" to="246546097_2535737162_2535737144_2535737112" />
	<connection from="246546097_2535737162_2535737144_2535737112" to="246546097_2535737162_2535737144_2535737109" />
	<connection from="246546097_2535737162_2535737144_2535737109" to="246546097_2535737162_2535737144_2535737141" />
	<connection from="246546097_2535737162_2535737144_2535737141" to="246546097_2535737162_2535737144_2535737149" />
	<connection from="246546097_2535737162_2535737144_2535737149" to="246546097_2535737162_2535737144_2535737158" />
	<connection from="246546097_2535737162_2535737144_2535737158" to="246546097_2535737162_2535737144_2535737148" />
	<connection from="246546097_2535737162_2535737144_2535737148" to="246546097_2535737162_2535737144_2535737104" />
	<connection from="246546097_2535737162_2535737144_2535737104" to="246546097_2535737162_2535737144_2535737181" />
	<connection from="246546097_2535737162_2535737144_2535737181" to="246546097_2535737162_2535737144_2535737180" />
	<connection from="246546097_2535737162_2535737144_2535737180" to="246546097_2535737162_2535737144_2535737100" />
	<connection from="246546097_2535737162_2535737144_2535737100" to="442653926_2535737144_2535737093_2535737144" />
	<connection from="246546097_2535737162_2535737144_2535737100" to="246546097_2535737144_2535737085_2535737144" />
	<connection from="246546097_2535737162_2535737144_2535737100" to="246546097_2535737144_2535737162_2535737144" />
	<connection from="246546100_2535737096_2535737068_2535737096" to="246546100_2535737096_2535737068_2535737108" />
	<connection from="246546100_2535737096_2535737068_2535737108" to="246546100_2535737096_2535737068_2535737103" />
	<connection from="246546100_2535737096_2535737068_2535737103" to="246546100_2535737096_2535737068_2535737166" />
	<connection from="246546100_2535737096_2535737068_2535737166" to="246546100_2535737096_2535737068_2535737083" />
	<connection from="246546100_2535737096_2535737068_2535737083" to="246546100_2535737096_2535737068_2535737132" />
	<connection from="246546100_2535737096_2535737068_2535737132" to="246546100_2535737068_2535737096_2535737068" />
	<connection from="246546100_2535737096_2535737068_2535737132" to="246546100_2535737068_2535737120_2535737068" />
	<connection from="246546100_2535737096_2535737068_2535737132" to="246546099_2535737068_2535737128_2535737068" />
	<connection from="246546100_2535737120_2535737068_2535737120" to="246546100_2535737068_2535737096_2535737068" />
	<connection from="246546100_2535737120_2535737068_2535737120" to="246546100_2535737068_2535737120_2535737068" />
	<connection from="246546100_2535737120_2535737068_2535737120" to="246546099_2535737068_2535737128_2535737068" />
	<connection from="246546817_2535743418_2535743431_2535743418" to="246546817_2535743418_2535743431_2535743417" />
	<connection from="246546817_2535743418_2535743431_2535743417" to="246546817_2535743418_2535743431_7592399679" />
	<connection from="246546817_2535743418_2535743431_7592399679" to="246546817_2535743418_2535743431_2535743430" />
	<connection from="246546817_2535743418_2535743431_2535743430" to="246546088_2535743431_2535737128_2535743431" />
	<connection from="246546817_2535743418_2535743431_2535743430" to="246546088_2535743431_2535737075_2535743431" />
	<connection from="246546817_2535743418_2535743431_2535743430" to="246546817_2535743431_2535743418_2535743431" />
	<connection from="246546089_2535737079_2535737062_2535737079" to="246546089_2535737079_2535737062_2535737069" />
	<connection from="246546089_2535737079_2535737062_2535737069" to="246546089_2535737079_2535737062_2535737127" />
	<connection from="246546089_2535737079_2535737062_2535737127" to="246546089_2535737079_2535737062_2535737177" />
	<connection from="246546089_2535737079_2535737062_2535737177" to="246546089_2535737079_2535737062_2535737169" />