<?xml version="1.0" encoding="UTF-8"?>

<!-- generated on Mon Jul 20 13:32:48 2020 by Eclipse SUMO netconvert Version 1.2.0
<configuration xmlns:xsi="http://www.w3.org/2001/XMLSchema-instance" xsi:noNamespaceSchemaLocation="http://sumo.dlr.de/xsd/netconvertConfiguration.xsd">

    <input>
        <node-files value="/home/vsimrti/scenarios/ids/sumo/gualtar18/gualtar18.nod.xml"/>
        <edge-files value="/home/vsimrti/scenarios/ids/sumo/gualtar18/gualtar18.edg.xml"/>
        <connection-files value="/home/vsimrti/scenarios/ids/sumo/gualtar18/gualtar18.con.xml"/>
    </input>

    <output>
        <output-file value="/home/vsimrti/scenarios/ids/sumo/gualtar18/gualtar18.net.xml"/>
    </output>

</configuration>
-->

<net version="1.1" junctionCornerDetail="5" limitTurnSpeed="5.50" xmlns:xsi="http://www.w3.org/2001/XMLSchema-instance" xsi:noNamespaceSchemaLocation="http://sumo.dlr.de/xsd/net_file.xsd">

    <location netOffset="-493059.02,-4258505.88" convBoundary="0.00,0.00,3375.62,3391.92" origBoundary="493059.02,4258505.88,496434.63,4261897.81" projParameter="!"/>

    <edge id=":1572967052_0" function="internal">
        <lane id=":1572967052_0_0" index="0" speed="18.06" length="0.26" shape="162.09,120.76 161.89,120.59"/>
    </edge>
    <edge id=":1572967052_1" function="internal">
        <lane id=":1572967052_1_0" index="0" speed="18.06" length="0.31" shape="163.98,118.16 164.21,118.36"/>
    </edge>
    <edge id=":1572967063_0" function="internal">
        <lane id=":1572967063_0_0" index="0" speed="18.06" length="0.31" shape="203.63,157.61 203.40,157.40"/>
    </edge>
    <edge id=":1572967063_1" function="internal">
        <lane id=":1572967063_1_0" index="0" speed="18.06" length="0.26" shape="205.52,155.01 205.72,155.18"/>
    </edge>
    <edge id=":1572967067_0" function="internal">
        <lane id=":1572967067_0_0" index="0" speed="18.06" length="0.10" shape="218.33,170.23 218.33,170.23"/>
    </edge>
    <edge id=":1572967067_1" function="internal">
        <lane id=":1572967067_1_0" index="0" speed="18.06" length="0.10" shape="220.41,167.80 220.41,167.80"/>
    </edge>
    <edge id=":1572967069_0" function="internal">
        <lane id=":1572967069_0_0" index="0" speed="18.06" length="0.10" shape="229.90,180.16 229.90,180.16"/>
    </edge>
    <edge id=":1572967069_1" function="internal">
        <lane id=":1572967069_1_0" index="0" speed="18.06" length="0.10" shape="231.98,177.74 231.98,177.74"/>
    </edge>
    <edge id=":1572967212_0" function="internal">
        <lane id=":1572967212_0_0" index="0" speed="18.06" length="0.16" shape="505.65,525.26 505.63,525.21 505.61,525.18 505.60,525.15 505.58,525.11"/>
    </edge>
    <edge id=":1572967212_1" function="internal">
        <lane id=":1572967212_1_0" index="0" speed="18.06" length="0.48" shape="508.33,523.48 508.40,523.60 508.45,523.69 508.49,523.78 508.55,523.91"/>
    </edge>
    <edge id=":1572967229_0" function="internal">
        <lane id=":1572967229_0_0" index="0" speed="18.06" length="0.22" shape="523.15,571.92 523.14,571.85 523.14,571.81 523.13,571.77 523.11,571.70"/>
    </edge>
    <edge id=":1572967229_1" function="internal">
        <lane id=":1572967229_1_0" index="0" speed="18.06" length="0.66" shape="526.19,570.83 526.24,571.02 526.27,571.15 526.29,571.28 526.32,571.48"/>
    </edge>
    <edge id=":1630333072_0" function="internal">
        <lane id=":1630333072_0_0" index="0" speed="6.61" length="8.75" shape="1914.39,2038.19 1912.04,2038.22 1910.19,2038.98 1908.86,2040.48 1908.03,2042.72"/>
    </edge>
    <edge id=":1630333072_1" function="internal">
        <lane id=":1630333072_1_0" index="0" speed="18.06" length="13.76" shape="1914.39,2038.19 1910.88,2037.67 1907.61,2037.07 1904.37,2036.34 1900.93,2035.44"/>
    </edge>
    <edge id=":1630333072_2" function="internal">
        <lane id=":1630333072_2_0" index="0" speed="3.65" length="2.34" shape="1914.39,2038.19 1913.31,2037.24 1913.02,2036.40"/>
    </edge>
    <edge id=":1630333072_9" function="internal">
        <lane id=":1630333072_9_0" index="0" speed="3.65" length="2.34" shape="1913.02,2036.40 1913.52,2035.66 1914.82,2035.02"/>
    </edge>
    <edge id=":1630333072_3" function="internal">
        <lane id=":1630333072_3_0" index="0" speed="18.06" length="13.32" shape="1901.78,2032.36 1905.15,2033.24 1908.25,2033.94 1911.37,2034.51 1914.82,2035.02"/>
    </edge>
    <edge id=":1630333072_4" function="internal">
        <lane id=":1630333072_4_0" index="0" speed="8.01" length="5.59" shape="1901.78,2032.36 1905.18,2033.84 1906.50,2035.18"/>
    </edge>
    <edge id=":1630333072_5" function="internal">
        <lane id=":1630333072_5_0" index="0" speed="3.65" length="2.34" shape="1901.78,2032.36 1902.72,2033.45 1902.90,2034.33"/>
    </edge>
    <edge id=":1630333072_10" function="internal">
        <lane id=":1630333072_10_0" index="0" speed="8.01" length="8.05" shape="1906.50,2035.18 1907.36,2036.06 1908.31,2039.02 1908.03,2042.72"/>
    </edge>
    <edge id=":1630333072_11" function="internal">
        <lane id=":1630333072_11_0" index="0" speed="3.65" length="2.34" shape="1902.90,2034.33 1902.30,2034.99 1900.93,2035.44"/>
    </edge>
    <edge id=":1630333072_6" function="internal">
        <lane id=":1630333072_6_0" index="0" speed="6.52" length="8.68" shape="1904.91,2042.04 1905.08,2039.68 1904.48,2037.80 1903.09,2036.38 1900.93,2035.44"/>
    </edge>
    <edge id=":1630333072_7" function="internal">
        <lane id=":1630333072_7_0" index="0" speed="8.09" length="13.61" shape="1904.91,2042.04 1906.19,2038.56 1908.27,2036.23 1911.15,2035.05 1914.82,2035.02"/>
    </edge>
    <edge id=":1630333072_8" function="internal">
        <lane id=":1630333072_8_0" index="0" speed="3.65" length="4.67" shape="1904.91,2042.04 1905.94,2041.04 1906.81,2040.82 1907.51,2041.38 1908.03,2042.72"/>
    </edge>
    <edge id=":1630333074_0" function="internal">
        <lane id=":1630333074_0_0" index="0" speed="8.33" length="2.04" shape="1839.32,2244.79 1839.27,2244.19 1839.28,2243.77 1839.37,2243.36 1839.56,2242.79"/>
    </edge>
    <edge id=":1630333074_1" function="internal">
        <lane id=":1630333074_1_0" index="0" speed="8.33" length="0.68" shape="1842.59,2243.83 1842.52,2244.02 1842.49,2244.15 1842.49,2244.29 1842.51,2244.49"/>
    </edge>
    <edge id=":1630333077_0" function="internal">
        <lane id=":1630333077_0_0" index="0" speed="6.44" length="4.38" shape="1770.74,2336.42 1769.72,2335.93 1768.90,2335.25 1768.26,2334.40 1767.81,2333.37"/>
    </edge>
    <edge id=":1630333077_1" function="internal">
        <lane id=":1630333077_1_0" index="0" speed="4.09" length="1.46" shape="1770.86,2332.40 1771.01,2332.74 1771.22,2333.03 1771.50,2333.25 1771.84,2333.42"/>
    </edge>
    <edge id=":1630333080_0" function="internal">
        <lane id=":1630333080_0_0" index="0" speed="6.47" length="4.25" shape="1851.38,2356.77 1850.89,2357.75 1850.23,2358.55 1849.41,2359.17 1848.41,2359.62"/>
    </edge>
    <edge id=":1630333080_1" function="internal">
        <lane id=":1630333080_1_0" index="0" speed="4.11" length="1.42" shape="1847.40,2356.58 1847.73,2356.43 1848.01,2356.22 1848.23,2355.96 1848.39,2355.63"/>
    </edge>
    <edge id=":1630333084_0" function="internal">
        <lane id=":1630333084_0_0" index="0" speed="6.95" length="3.27" shape="1842.49,2361.59 1841.57,2361.87 1840.90,2361.95 1840.24,2361.85 1839.33,2361.54"/>
    </edge>
    <edge id=":1630333084_1" function="internal">
        <lane id=":1630333084_1_0" index="0" speed="4.36" length="1.09" shape="1840.43,2358.53 1840.73,2358.64 1840.95,2358.67 1841.17,2358.64 1841.48,2358.55"/>
    </edge>
    <edge id=":1630333087_0" function="internal">
        <lane id=":1630333087_0_0" index="0" speed="3.99" length="1.80" shape="1785.52,2279.83 1785.06,2279.94 1784.69,2280.15 1784.40,2280.47 1784.19,2280.89"/>
    </edge>
    <edge id=":1630333087_1" function="internal">
        <lane id=":1630333087_1_0" index="0" speed="6.24" length="5.40" shape="1781.17,2279.84 1781.79,2278.57 1782.66,2277.62 1783.78,2276.98 1785.15,2276.65"/>
    </edge>
    <edge id=":1630333091_0" function="internal">
        <lane id=":1630333091_0_0" index="0" speed="7.04" length="3.12" shape="1765.80,2327.03 1765.54,2326.14 1765.46,2325.51 1765.56,2324.87 1765.84,2324.00"/>
    </edge>
    <edge id=":1630333091_1" function="internal">
        <lane id=":1630333091_1_0" index="0" speed="4.41" length="1.04" shape="1768.86,2325.05 1768.77,2325.34 1768.73,2325.55 1768.76,2325.76 1768.85,2326.06"/>
    </edge>
    <edge id=":1630333094_0" function="internal">
        <lane id=":1630333094_0_0" index="0" speed="7.54" length="2.58" shape="1858.25,2336.92 1858.36,2337.68 1858.37,2338.21 1858.26,2338.72 1858.00,2339.44"/>
    </edge>
    <edge id=":1630333094_1" function="internal">
        <lane id=":1630333094_1_0" index="0" speed="8.33" length="0.86" shape="1855.01,2338.30 1855.10,2338.06 1855.13,2337.89 1855.13,2337.71 1855.09,2337.46"/>
    </edge>
    <edge id=":1810117270_0" function="internal">
        <lane id=":1810117270_0_0" index="0" speed="8.33" length="0.94" shape="1893.37,2213.71 1893.24,2213.47 1893.16,2213.29 1893.10,2213.11 1893.01,2212.85"/>
    </edge>
    <edge id=":1810117270_1" function="internal">
        <lane id=":1810117270_1_0" index="0" speed="8.33" length="0.31" shape="1896.08,2211.92 1896.10,2212.01 1896.13,2212.07 1896.15,2212.13 1896.20,2212.21"/>
    </edge>
    <edge id=":1810117271_0" function="internal">
        <lane id=":1810117271_0_0" index="0" speed="8.33" length="0.30" shape="1902.19,2230.33 1902.05,2230.06"/>
    </edge>
    <edge id=":1810117271_1" function="internal">
        <lane id=":1810117271_1_0" index="0" speed="8.33" length="0.30" shape="1904.88,2228.56 1905.02,2228.83"/>
    </edge>
    <edge id=":1810117277_0" function="internal">
        <lane id=":1810117277_0_0" index="0" speed="4.09" length="1.47" shape="1895.27,2199.65 1894.93,2199.82 1894.66,2200.05 1894.45,2200.34 1894.30,2200.69"/>
    </edge>
    <edge id=":1810117277_1" function="internal">
        <lane id=":1810117277_1_0" index="0" speed="6.43" length="4.42" shape="1891.23,2199.76 1891.67,2198.72 1892.31,2197.85 1893.13,2197.16 1894.15,2196.65"/>
    </edge>
    <edge id=":1810117281_0" function="internal">
        <lane id=":1810117281_0_0" index="0" speed="8.33" length="1.66" shape="1914.44,2208.77 1914.47,2209.26 1914.45,2209.60 1914.39,2209.93 1914.25,2210.40"/>
    </edge>
    <edge id=":1810117281_1" function="internal">
        <lane id=":1810117281_1_0" index="0" speed="8.33" length="0.55" shape="1911.19,2209.49 1911.23,2209.33 1911.25,2209.22 1911.26,2209.11 1911.25,2208.94"/>
    </edge>
    <edge id=":1810117287_0" function="internal">
        <lane id=":1810117287_0_0" index="0" speed="8.33" length="0.33" shape="1905.27,2240.54 1905.16,2240.86"/>
    </edge>
    <edge id=":1810117287_1" function="internal">
        <lane id=":1810117287_1_0" index="0" speed="8.33" length="0.11" shape="1902.17,2239.73 1902.20,2239.62"/>
    </edge>
    <edge id=":1810117295_0" function="internal">
        <lane id=":1810117295_0_0" index="0" speed="8.33" length="0.57" shape="1897.54,2198.91 1897.37,2198.91 1897.26,2198.92 1897.14,2198.95 1896.98,2199.01"/>
    </edge>
    <edge id=":1810117295_1" function="internal">
        <lane id=":1810117295_1_0" index="0" speed="8.33" length="1.72" shape="1895.86,2196.01 1896.34,2195.84 1896.68,2195.75 1897.03,2195.71 1897.54,2195.71"/>
    </edge>
    <edge id=":1810117304_0" function="internal">
        <lane id=":1810117304_0_0" index="0" speed="8.10" length="2.24" shape="1895.29,2256.84 1894.76,2257.22 1894.36,2257.45 1893.92,2257.59 1893.27,2257.71"/>
    </edge>
    <edge id=":1810117304_1" function="internal">
        <lane id=":1810117304_1_0" index="0" speed="8.33" length="0.75" shape="1892.70,2254.57 1892.92,2254.52 1893.07,2254.48 1893.20,2254.40 1893.38,2254.27"/>
    </edge>
    <edge id=":1810117325_0" function="internal">
        <lane id=":1810117325_0_0" index="0" speed="8.33" length="13.25" shape="1844.02,2272.20 1841.47,2259.19"/>
    </edge>
    <edge id=":1810117325_1" function="internal">
        <lane id=":1810117325_1_0" index="0" speed="8.00" length="5.65" shape="1844.02,2272.20 1843.92,2268.34 1844.57,2266.67"/>
    </edge>
    <edge id=":1810117325_2" function="internal">
        <lane id=":1810117325_2_0" index="0" speed="3.65" length="2.34" shape="1844.02,2272.20 1844.61,2270.88 1845.33,2270.35"/>
    </edge>
    <edge id=":1810117325_9" function="internal">
        <lane id=":1810117325_9_0" index="0" speed="8.00" length="8.44" shape="1844.57,2266.67 1845.07,2265.37 1847.47,2263.28 1851.13,2262.06"/>
    </edge>
    <edge id=":1810117325_10" function="internal">
        <lane id=":1810117325_10_0" index="0" speed="3.65" length="2.34" shape="1845.33,2270.35 1846.18,2270.61 1847.17,2271.66"/>
    </edge>
    <edge id=":1810117325_3" function="internal">
        <lane id=":1810117325_3_0" index="0" speed="6.51" length="8.96" shape="1851.70,2265.21 1849.37,2265.98 1847.84,2267.32 1847.11,2269.21 1847.17,2271.66"/>
    </edge>
    <edge id=":1810117325_4" function="internal">
        <lane id=":1810117325_4_0" index="0" speed="7.92" length="13.40" shape="1851.70,2265.21 1847.87,2265.41 1844.88,2264.48 1842.75,2262.40 1841.47,2259.19"/>
    </edge>
    <edge id=":1810117325_5" function="internal">
        <lane id=":1810117325_5_0" index="0" speed="3.65" length="4.67" shape="1851.70,2265.21 1850.38,2264.64 1849.84,2263.92 1850.09,2263.06 1851.13,2262.06"/>
    </edge>
    <edge id=":1810117325_6" function="internal">
        <lane id=":1810117325_6_0" index="0" speed="6.40" length="8.41" shape="1844.59,2258.48 1845.39,2260.42 1846.74,2261.67 1848.66,2262.21 1851.13,2262.06"/>
    </edge>
    <edge id=":1810117325_7" function="internal">
        <lane id=":1810117325_7_0" index="0" speed="8.33" length="13.43" shape="1844.59,2258.48 1847.17,2271.66"/>
    </edge>
    <edge id=":1810117325_8" function="internal">
        <lane id=":1810117325_8_0" index="0" speed="3.65" length="2.34" shape="1844.59,2258.48 1844.08,2259.83 1843.38,2260.40"/>
    </edge>
    <edge id=":1810117325_11" function="internal">
        <lane id=":1810117325_11_0" index="0" speed="3.65" length="2.34" shape="1843.38,2260.40 1842.52,2260.19 1841.47,2259.19"/>
    </edge>
    <edge id=":1810117355_0" function="internal">
        <lane id=":1810117355_0_0" index="0" speed="8.33" length="0.74" shape="1905.81,2199.07 1905.61,2198.97 1905.47,2198.92 1905.32,2198.90 1905.10,2198.90"/>
    </edge>
    <edge id=":1810117355_1" function="internal">
        <lane id=":1810117355_1_0" index="0" speed="8.11" length="2.23" shape="1905.10,2195.70 1905.76,2195.71 1906.21,2195.77 1906.64,2195.92 1907.24,2196.20"/>
    </edge>
    <edge id=":1810117359_0" function="internal">
        <lane id=":1810117359_0_0" index="0" speed="7.33" length="2.76" shape="1901.16,2251.51 1900.86,2252.26 1900.58,2252.75 1900.18,2253.16 1899.54,2253.66"/>
    </edge>
    <edge id=":1810117359_1" function="internal">
        <lane id=":1810117359_1_0" index="0" speed="8.33" length="0.92" shape="1897.63,2251.10 1897.84,2250.93 1897.97,2250.80 1898.07,2250.63 1898.17,2250.38"/>
    </edge>
    <edge id=":1810117374_0" function="internal">
        <lane id=":1810117374_0_0" index="0" speed="7.26" length="2.84" shape="1890.57,2204.75 1890.34,2203.95 1890.27,2203.37 1890.34,2202.79 1890.57,2201.98"/>
    </edge>
    <edge id=":1810117374_1" function="internal">
        <lane id=":1810117374_1_0" index="0" speed="8.33" length="0.95" shape="1893.63,2202.90 1893.56,2203.17 1893.53,2203.37 1893.56,2203.56 1893.63,2203.83"/>
    </edge>
    <edge id=":1810117379_0" function="internal">
        <lane id=":1810117379_0_0" index="0" speed="4.02" length="1.69" shape="1910.90,2202.51 1910.83,2202.07 1910.66,2201.70 1910.39,2201.40 1910.02,2201.16"/>
    </edge>
    <edge id=":1810117379_1" function="internal">
        <lane id=":1810117379_1_0" index="0" speed="6.29" length="5.08" shape="1911.44,2198.30 1912.55,2199.01 1913.36,2199.93 1913.88,2201.03 1914.10,2202.33"/>
    </edge>
    <edge id=":1935599514_0" function="internal">
        <lane id=":1935599514_0_0" index="0" speed="8.33" length="0.55" shape="1901.70,2071.61 1901.67,2071.77 1901.64,2071.88 1901.61,2071.99 1901.56,2072.15"/>
    </edge>
    <edge id=":1935599514_1" function="internal">
        <lane id=":1935599514_1_0" index="0" speed="8.33" length="0.18" shape="1898.53,2071.11 1898.55,2071.05 1898.56,2071.02 1898.57,2070.98 1898.58,2070.93"/>
    </edge>
    <edge id=":196094453_0" function="internal">
        <lane id=":196094453_0_0" index="0" speed="18.06" length="0.66" shape="2169.18,2081.87 2169.10,2081.69 2169.04,2081.57 2168.95,2081.47 2168.82,2081.33"/>
    </edge>
    <edge id=":196094453_1" function="internal">
        <lane id=":196094453_1_0" index="0" speed="8.84" length="1.97" shape="2171.06,2079.04 2171.47,2079.46 2171.72,2079.77 2171.92,2080.12 2172.14,2080.66"/>
    </edge>
    <edge id=":196094999_0" function="internal">
        <lane id=":196094999_0_0" index="0" speed="9.61" length="1.81" shape="2049.73,2083.25 2049.20,2083.30 2048.83,2083.30 2048.46,2083.24 2047.95,2083.10"/>
    </edge>
    <edge id=":196094999_1" function="internal">
        <lane id=":196094999_1_0" index="0" speed="18.06" length="0.60" shape="2048.80,2080.02 2048.98,2080.06 2049.10,2080.09 2049.22,2080.09 2049.40,2080.07"/>
    </edge>
    <edge id=":196095107_0" function="internal">
        <lane id=":196095107_0_0" index="0" speed="18.06" length="0.10" shape="678.88,769.81 678.88,769.81"/>
    </edge>
    <edge id=":196095107_1" function="internal">
        <lane id=":196095107_1_0" index="0" speed="18.06" length="0.10" shape="680.33,766.95 680.33,766.95"/>
    </edge>
    <edge id=":196095530_0" function="internal">
        <lane id=":196095530_0_0" index="0" speed="18.06" length="1.04" shape="1881.68,1892.90 1881.72,1893.21 1881.74,1893.42 1881.73,1893.63 1881.71,1893.94"/>
    </edge>
    <edge id=":196095530_1" function="internal">
        <lane id=":196095530_1_0" index="0" speed="18.06" length="0.35" shape="1878.52,1893.69 1878.53,1893.59 1878.53,1893.52 1878.52,1893.45 1878.51,1893.35"/>
    </edge>
    <edge id=":196095702_0" function="internal">
        <lane id=":196095702_0_0" index="0" speed="18.06" length="0.90" shape="2067.01,2081.37 2066.76,2081.45 2066.58,2081.49 2066.40,2081.52 2066.14,2081.55"/>
    </edge>
    <edge id=":196095702_1" function="internal">
        <lane id=":196095702_1_0" index="0" speed="18.06" length="0.30" shape="2065.81,2078.37 2065.89,2078.36 2065.95,2078.35 2066.01,2078.33 2066.10,2078.31"/>
    </edge>
    <edge id=":196095767_0" function="internal">
        <lane id=":196095767_0_0" index="0" speed="18.06" length="0.28" shape="2720.91,2689.11 2720.83,2688.84"/>
    </edge>
    <edge id=":196095767_1" function="internal">
        <lane id=":196095767_1_0" index="0" speed="18.06" length="0.31" shape="2723.86,2687.83 2723.96,2688.13"/>
    </edge>
    <edge id=":196095966_0" function="internal">
        <lane id=":196095966_0_0" index="0" speed="18.06" length="1.11" shape="537.48,673.88 537.36,673.57 537.30,673.35 537.25,673.13 537.20,672.81"/>
    </edge>
    <edge id=":196095966_1" function="internal">
        <lane id=":196095966_1_0" index="0" speed="18.06" length="0.37" shape="540.37,672.37 540.39,672.47 540.40,672.55 540.43,672.62 540.47,672.72"/>
    </edge>
    <edge id=":196096638_0" function="internal">
        <lane id=":196096638_0_0" index="0" speed="18.06" length="1.10" shape="2203.76,2179.49 2203.77,2179.82 2203.77,2180.04 2203.74,2180.26 2203.67,2180.58"/>
    </edge>
    <edge id=":196096638_1" function="internal">
        <lane id=":196096638_1_0" index="0" speed="18.06" length="0.37" shape="2200.54,2179.96 2200.56,2179.85 2200.57,2179.78 2200.57,2179.70 2200.57,2179.59"/>
    </edge>
    <edge id=":196096859_0" function="internal">
        <lane id=":196096859_0_0" index="0" speed="18.06" length="0.59" shape="1971.68,2045.95 1971.53,2045.87 1971.42,2045.83 1971.30,2045.80 1971.13,2045.77"/>
    </edge>
    <edge id=":196096859_1" function="internal">
        <lane id=":196096859_1_0" index="0" speed="9.87" length="1.77" shape="1971.55,2042.60 1972.07,2042.68 1972.42,2042.76 1972.75,2042.90 1973.21,2043.14"/>
    </edge>
    <edge id=":196097007_0" function="internal">
        <lane id=":196097007_0_0" index="0" speed="18.06" length="0.63" shape="1874.84,1867.27 1874.81,1867.09 1874.78,1866.96 1874.72,1866.84 1874.63,1866.68"/>
    </edge>
    <edge id=":196097007_1" function="internal">
        <lane id=":196097007_1_0" index="0" speed="9.23" length="1.88" shape="1877.39,1865.07 1877.67,1865.55 1877.83,1865.90 1877.92,1866.27 1878.00,1866.82"/>
    </edge>
    <edge id=":196097938_0" function="internal">
        <lane id=":196097938_0_0" index="0" speed="7.67" length="2.48" shape="1877.29,2019.99 1876.77,2019.48 1876.46,2019.07 1876.24,2018.61 1876.02,2017.91"/>
    </edge>
    <edge id=":196097938_1" function="internal">
        <lane id=":196097938_1_0" index="0" speed="18.06" length="0.83" shape="1879.09,2017.00 1879.16,2017.23 1879.23,2017.38 1879.34,2017.52 1879.51,2017.69"/>
    </edge>
    <edge id=":196098272_0" function="internal">
        <lane id=":196098272_0_0" index="0" speed="18.06" length="0.28" shape="356.81,289.17 356.76,289.11 356.72,289.07 356.68,289.03 356.62,288.97"/>
    </edge>
    <edge id=":196098272_1" function="internal">
        <lane id=":196098272_1_0" index="0" speed="18.06" length="0.84" shape="358.70,286.55 358.89,286.71 359.01,286.83 359.13,286.95 359.29,287.15"/>
    </edge>
    <edge id=":196098453_0" function="internal">
        <lane id=":196098453_0_0" index="0" speed="18.06" length="1.03" shape="2738.88,2744.67 2738.73,2744.41 2738.64,2744.22 2738.56,2744.02 2738.47,2743.73"/>
    </edge>
    <edge id=":196098453_1" function="internal">
        <lane id=":196098453_1_0" index="0" speed="18.06" length="0.34" shape="2741.51,2742.76 2741.55,2742.85 2741.57,2742.92 2741.60,2742.98 2741.65,2743.07"/>
    </edge>
    <edge id=":196098734_0" function="internal">
        <lane id=":196098734_0_0" index="0" speed="18.06" length="0.49" shape="2755.48,2773.30 2755.40,2773.18 2755.34,2773.10 2755.29,2773.01 2755.21,2772.88"/>
    </edge>
    <edge id=":196098734_1" function="internal">
        <lane id=":196098734_1_0" index="0" speed="18.06" length="0.16" shape="2757.98,2771.28 2758.01,2771.32 2758.02,2771.35 2758.04,2771.38 2758.07,2771.42"/>
    </edge>
    <edge id=":196099239_0" function="internal">
        <lane id=":196099239_0_0" index="0" speed="18.06" length="0.42" shape="2870.92,2932.39 2870.66,2932.07"/>
    </edge>
    <edge id=":196099239_1" function="internal">
        <lane id=":196099239_1_0" index="0" speed="18.06" length="0.14" shape="2873.25,2930.19 2873.34,2930.30"/>
    </edge>
    <edge id=":196099421_0" function="internal">
        <lane id=":196099421_0_0" index="0" speed="9.87" length="1.77" shape="1870.76,2000.33 1870.62,1999.82 1870.55,1999.47 1870.54,1999.11 1870.57,1998.59"/>
    </edge>
    <edge id=":196099421_1" function="internal">
        <lane id=":196099421_1_0" index="0" speed="18.06" length="0.59" shape="1873.76,1998.83 1873.75,1999.00 1873.76,1999.12 1873.78,1999.24 1873.83,1999.41"/>
    </edge>
    <edge id=":196099513_0" function="internal">
        <lane id=":196099513_0_0" index="0" speed="18.06" length="0.60" shape="2902.62,2968.88 2902.49,2968.76 2902.40,2968.67 2902.32,2968.58 2902.20,2968.45"/>
    </edge>
    <edge id=":196099513_1" function="internal">
        <lane id=":196099513_1_0" index="0" speed="18.06" length="0.20" shape="2904.62,2966.35 2904.66,2966.40 2904.69,2966.43 2904.71,2966.46 2904.76,2966.50"/>
    </edge>
    <edge id=":196099799_0" function="internal">
        <lane id=":196099799_0_0" index="0" speed="18.06" length="0.21" shape="377.00,313.87 376.97,313.82 376.94,313.78 376.92,313.75 376.88,313.70"/>
    </edge>
    <edge id=":196099799_1" function="internal">
        <lane id=":196099799_1_0" index="0" speed="18.06" length="0.64" shape="379.35,311.67 379.47,311.82 379.55,311.92 379.62,312.03 379.72,312.19"/>
    </edge>
    <edge id=":196100138_0" function="internal">
        <lane id=":196100138_0_0" index="0" speed="7.89" length="2.35" shape="546.35,695.26 545.83,694.79 545.52,694.43 545.28,694.01 545.02,693.37"/>
    </edge>
    <edge id=":196100138_1" function="internal">
        <lane id=":196100138_1_0" index="0" speed="18.06" length="0.78" shape="548.01,692.22 548.09,692.43 548.17,692.57 548.28,692.69 548.45,692.84"/>
    </edge>
    <edge id=":196100202_0" function="internal">
        <lane id=":196100202_0_0" index="0" speed="17.29" length="1.38" shape="2208.18,2527.81 2207.92,2527.49 2207.76,2527.26 2207.63,2527.01 2207.47,2526.64"/>
    </edge>
    <edge id=":196100202_1" function="internal">
        <lane id=":196100202_1_0" index="0" speed="18.06" length="0.46" shape="2210.41,2525.39 2210.47,2525.51 2210.51,2525.60 2210.57,2525.67 2210.65,2525.78"/>
    </edge>
    <edge id=":196100312_0" function="internal">
        <lane id=":196100312_0_0" index="0" speed="18.06" length="0.33" shape="1343.58,1284.65 1343.33,1284.43"/>
    </edge>
    <edge id=":196100312_1" function="internal">
        <lane id=":196100312_1_0" index="0" speed="18.06" length="0.11" shape="1345.52,1282.09 1345.60,1282.17"/>
    </edge>
    <edge id=":196100346_0" function="internal">
        <lane id=":196100346_0_0" index="0" speed="18.06" length="0.25" shape="2165.30,2372.77 2165.29,2372.85 2165.28,2372.90 2165.28,2372.95 2165.27,2373.02"/>
    </edge>
    <edge id=":196100346_1" function="internal">
        <lane id=":196100346_1_0" index="0" speed="18.06" length="0.75" shape="2162.08,2372.89 2162.09,2372.67 2162.10,2372.52 2162.12,2372.37 2162.17,2372.15"/>
    </edge>
    <edge id=":196100397_0" function="internal">
        <lane id=":196100397_0_0" index="0" speed="18.06" length="0.48" shape="1142.61,1008.54 1142.52,1008.43 1142.45,1008.36 1142.38,1008.30 1142.26,1008.22"/>
    </edge>
    <edge id=":196100397_1" function="internal">
        <lane id=":196100397_1_0" index="0" speed="14.32" length="1.45" shape="1144.03,1005.55 1144.38,1005.79 1144.62,1005.98 1144.82,1006.19 1145.10,1006.52"/>
    </edge>
    <edge id=":196101263_0" function="internal">
        <lane id=":196101263_0_0" index="0" speed="18.06" length="0.13" shape="1155.17,1023.96 1155.09,1023.86"/>
    </edge>
    <edge id=":196101263_1" function="internal">
        <lane id=":196101263_1_0" index="0" speed="18.06" length="0.38" shape="1157.57,1021.84 1157.81,1022.14"/>
    </edge>
    <edge id=":196101282_0" function="internal">
        <lane id=":196101282_0_0" index="0" speed="18.06" length="0.49" shape="2680.31,2608.55 2680.19,2608.46 2680.11,2608.41 2680.02,2608.37 2679.88,2608.32"/>
    </edge>
    <edge id=":196101282_1" function="internal">
        <lane id=":196101282_1_0" index="0" speed="13.78" length="1.47" shape="2680.96,2605.30 2681.37,2605.45 2681.64,2605.58 2681.90,2605.74 2682.25,2606.00"/>
    </edge>
    <edge id=":196102287_0" function="internal">
        <lane id=":196102287_0_0" index="0" speed="7.60" length="2.54" shape="2224.74,2546.91 2224.04,2546.64 2223.59,2546.39 2223.20,2546.04 2222.72,2545.47"/>
    </edge>
    <edge id=":196102287_1" function="internal">
        <lane id=":196102287_1_0" index="0" speed="18.06" length="0.85" shape="2225.19,2543.44 2225.35,2543.63 2225.48,2543.74 2225.63,2543.83 2225.86,2543.92"/>
    </edge>
    <edge id=":196102388_0" function="internal">
        <lane id=":196102388_0_0" index="0" speed="18.06" length="0.26" shape="146.63,107.45 146.43,107.28"/>
    </edge>
    <edge id=":196102388_1" function="internal">
        <lane id=":196102388_1_0" index="0" speed="18.06" length="0.31" shape="148.48,104.82 148.72,105.02"/>
    </edge>
    <edge id=":196102896_0" function="internal">
        <lane id=":196102896_0_0" index="0" speed="18.06" length="1.09" shape="2031.90,2078.63 2031.59,2078.55 2031.38,2078.47 2031.18,2078.38 2030.89,2078.23"/>
    </edge>
    <edge id=":196102896_1" function="internal">
        <lane id=":196102896_1_0" index="0" speed="18.06" length="0.36" shape="2032.42,2075.42 2032.52,2075.47 2032.59,2075.50 2032.66,2075.52 2032.76,2075.55"/>
    </edge>
    <edge id=":196108277_0" function="internal">
        <lane id=":196108277_0_0" index="0" speed="7.78" length="2.41" shape="1891.42,2032.81 1890.74,2032.61 1890.28,2032.42 1889.88,2032.13 1889.36,2031.64"/>
    </edge>
    <edge id=":196108277_1" function="internal">
        <lane id=":196108277_1_0" index="0" speed="18.06" length="0.80" shape="1891.59,2029.34 1891.76,2029.50 1891.89,2029.60 1892.04,2029.66 1892.27,2029.73"/>
    </edge>
    <edge id=":196108605_0" function="internal">
        <lane id=":196108605_0_0" index="0" speed="18.06" length="0.78" shape="2695.84,2620.59 2695.74,2620.38 2695.65,2620.25 2695.54,2620.13 2695.36,2619.99"/>
    </edge>
    <edge id=":196108605_1" function="internal">
        <lane id=":196108605_1_0" index="0" speed="7.89" length="2.34" shape="2697.29,2617.44 2697.84,2617.87 2698.18,2618.21 2698.44,2618.61 2698.74,2619.24"/>
    </edge>
    <edge id=":196108728_0" function="internal">
        <lane id=":196108728_0_0" index="0" speed="18.06" length="0.26" shape="516.74,549.16 516.72,549.09 516.70,549.04 516.68,548.99 516.65,548.93"/>
    </edge>
    <edge id=":196108728_1" function="internal">
        <lane id=":196108728_1_0" index="0" speed="18.06" length="0.77" shape="519.55,547.58 519.65,547.78 519.71,547.93 519.75,548.08 519.82,548.29"/>
    </edge>
    <edge id=":196108871_0" function="internal">
        <lane id=":196108871_0_0" index="0" speed="18.06" length="1.19" shape="566.79,712.87 566.48,712.71 566.27,712.59 566.08,712.44 565.81,712.21"/>
    </edge>
    <edge id=":196108871_1" function="internal">