<nodes>
	<node id="196111498" x="494624.0077" y="4259968.4607" z="0.0000" type="priority" />
	<node id="3076881229" x="496155.4576" y="4261646.8284" z="0.0000" type="priority" />
	<node id="7592399712" x="494683.9694" y="4260315.8077" z="0.0000" type="priority" />
	<node id="2535743416" x="494410.8084" y="4260093.7042" z="0.0000" type="priority" />
	<node id="7209772865" x="496032.8780" y="4261536.6477" z="0.0000" type="priority" />
	<node id="2535743417" x="494463.6719" y="4260518.2616" z="0.0000" type="priority" />
	<node id="2535743418" x="494423.2836" y="4260626.8432" z="0.0000" type="priority" />
	<node id="3695682410" x="493536.0925" y="4258979.7762" z="0.0000" type="priority" />
	<node id="1810117359" x="494958.3522" y="4260757.7013" z="0.0000" type="priority" />
	<node id="2535743419" x="494453.1659" y="4260117.6647" z="0.0000" type="priority" />
	<node id="1810117355" x="494964.8670" y="4260703.1818" z="0.0000" type="priority" />
	<node id="2535743410" x="494453.3618" y="4260123.5566" z="0.0000" type="priority" />
	<node id="2535743411" x="494405.8355" y="4260091.0779" z="0.0000" type="priority" />
	<node id="2535743412" x="494468.9281" y="4259919.8762" z="0.0000" type="priority" />
	<node id="2535743413" x="494493.0923" y="4260017.9384" z="0.0000" type="priority" />
	<node id="2535743414" x="494404.7121" y="4260080.8924" z="0.0000" type="priority" />
	<node id="2535743415" x="494403.2604" y="4260087.5844" z="0.0000" type="priority" />
	<node id="7209772862" x="496151.1832" y="4261642.9912" z="0.0000" type="priority" />
	<node id="196110951" x="496434.6337" y="4261897.8058" z="0.0000" type="priority" />
	<node id="196108871" x="493626.1817" y="4259217.1503" z="0.0000" type="priority" />
	<node id="196109046" x="495513.7075" y="4261035.3636" z="0.0000" type="priority" />
	<node id="2535743427" x="494440.2090" y="4259995.6050" z="0.0000" type="priority" />
	<node id="2535743428" x="494964.7066" y="4260739.3997" z="0.0000" type="priority" />
	<node id="7592399716" x="494247.0991" y="4259574.7647" z="0.0000" type="priority" />
	<node id="2535743429" x="494485.7704" y="4259909.3788" z="0.0000" type="priority" />
	<node id="196102896" x="495090.9955" y="4260582.8769" z="0.0000" type="priority" />
	<node id="2535743420" x="494429.0002" y="4260105.7309" z="0.0000" type="priority" />
	<node id="3695683615" x="493517.8823" y="4258949.8536" z="0.0000" type="priority" />
	<node id="2535743421" x="494522.2086" y="4259923.0354" z="0.0000" type="priority" />
	<node id="2535743422" x="494512.1647" y="4260195.4303" z="0.0000" type="priority" />
	<node id="1974483042" x="496324.0383" y="4261798.3785" z="0.0000" type="priority" />
	<node id="2535743424" x="494476.4130" y="4259910.0843" z="0.0000" type="priority" />
	<node id="3049340823" x="493452.8232" y="4258843.9051" z="0.0000" type="priority" />
	<node id="2535743425" x="494453.1697" y="4260123.2571" z="0.0000" type="priority" />
	<node id="3662168704" x="494737.5968" y="4260120.5579" z="0.0000" type="priority" />
	<node id="2592049028" x="493763.4250" y="4259286.8483" z="0.0000" type="priority" />
	<node id="196098734" x="495815.6968" y="4261278.1065" z="0.0000" type="priority" />
	<node id="196110503" x="494919.8963" y="4260345.9142" z="0.0000" type="priority" />
	<node id="196095107" x="493738.6186" y="4259274.2624" z="0.0000" type="priority" />
	<node id="1572967069" x="493289.9554" y="4258684.8323" z="0.0000" type="priority" />
	<node id="1810117379" x="494971.4181" y="4260706.4400" z="0.0000" type="priority" />
	<node id="2535737086" x="494893.0620" y="4260427.5988" z="0.0000" type="priority" />
	<node id="2535737087" x="494568.7777" y="4260202.8484" z="0.0000" type="priority" />
	<node id="2535737088" x="494815.9476" y="4260445.8903" z="0.0000" type="priority" />
	<node id="2535737089" x="494688.8415" y="4260654.2148" z="0.0000" type="priority" />
	<node id="2535737082" x="494637.7609" y="4260177.1810" z="0.0000" type="priority" />
	<node id="2535737083" x="494739.4468" y="4260521.5714" z="0.0000" type="priority" />
	<node id="1572967063" x="493263.5854" y="4258662.1850" z="0.0000" type="priority" />
	<node id="2535737084" x="494564.2562" y="4260093.9206" z="0.0000" type="priority" />
	<node id="2535737085" x="494582.2346" y="4260048.3921" z="0.0000" type="priority" />
	<node id="1572967067" x="493278.3896" y="4258674.8999" z="0.0000" type="priority" />
	<node id="2535737080" x="494646.8089" y="4260759.0681" z="0.0000" type="priority" />
	<node id="2535737081" x="494750.8155" y="4260130.2140" z="0.0000" type="priority" />
	<node id="196110856" x="494379.4190" y="4259766.6674" z="0.0000" type="priority" />
	<node id="196110612" x="493533.1665" y="4258974.8519" z="0.0000" type="priority" />
	<node id="1810117374" x="494950.8396" y="4260709.2491" z="0.0000" type="priority" />
	<node id="2535743405" x="494526.0172" y="4259931.9541" z="0.0000" type="priority" />
	<node id="2535743408" x="494471.7324" y="4259914.0488" z="0.0000" type="priority" />
	<node id="2535737097" x="494556.2411" y="4260003.2151" z="0.0000" type="priority" />
	<node id="2535743409" x="494441.1722" y="4260114.5772" z="0.0000" type="priority" />
	<node id="2535737098" x="494503.9263" y="4260123.2222" z="0.0000" type="priority" />
	<node id="196100138" x="493605.8191" y="4259199.4126" z="0.0000" type="priority" />
	<node id="2535737099" x="494846.8357" y="4260471.9575" z="0.0000" type="priority" />
	<node id="2535737093" x="494610.5044" y="4260042.2147" z="0.0000" type="priority" />
	<node id="2535737094" x="494333.7150" y="4260564.7786" z="0.0000" type="priority" />
	<node id="1572967052" x="493222.0606" y="4258625.3475" z="0.0000" type="priority" />
	<node id="2535737095" x="494888.6602" y="4260403.6783" z="0.0000" type="priority" />
	<node id="2535737096" x="494700.4621" y="4260635.2771" z="0.0000" type="priority" />
	<node id="2535743401" x="494456.6793" y="4260128.6142" z="0.0000" type="priority" />
	<node id="2535737090" x="494753.8529" y="4260280.7645" z="0.0000" type="priority" />
	<node id="2535737091" x="494871.8227" y="4260407.1844" z="0.0000" type="priority" />
	<node id="2535743403" x="494481.3219" y="4259908.4497" z="0.0000" type="priority" />
	<node id="2535737092" x="494734.7301" y="4260124.4546" z="0.0000" type="priority" />
	<node id="2535743404" x="494523.4492" y="4259938.9353" z="0.0000" type="priority" />
	<node id="6689631396" x="494839.6487" y="4260768.6620" z="0.0000" type="priority" />
	<node id="6689631395" x="494838.2392" y="4260773.6451" z="0.0000" type="priority" />
	<node id="6689631398" x="494843.2279" y="4260761.0700" z="0.0000" type="priority" />
	<node id="6689631397" x="494841.3378" y="4260764.4999" z="0.0000" type="priority" />
	<node id="6689631392" x="494854.4950" y="4260761.6619" z="0.0000" type="priority" />
	<node id="6689631391" x="494900.6937" y="4260758.7475" z="0.0000" type="priority" />
	<node id="6689631394" x="494836.9603" y="4260778.2841" z="0.0000" type="priority" />
	<node id="6689631393" x="494837.9043" y="4260781.7122" z="0.0000" type="priority" />
	<node id="2535737068" x="494754.4408" y="4260486.5311" z="0.0000" type="priority" />
	<node id="2535737069" x="494670.7156" y="4260226.7478" z="0.0000" type="priority" />
	<node id="2535737064" x="494727.5463" y="4260114.6836" z="0.0000" type="priority" />
	<node id="2535737065" x="494725.7653" y="4260602.9485" z="0.0000" type="priority" />
	<node id="2535737066" x="494728.0519" y="4260101.1793" z="0.0000" type="priority" />
	<node id="2535737067" x="494770.7447" y="4260453.9976" z="0.0000" type="priority" />
	<node id="2535737181" x="494523.2852" y="4260043.7717" z="0.0000" type="priority" />
	<node id="196111173" x="494180.8989" y="4259498.6707" z="0.0000" type="priority" />
	<node id="2535737182" x="494659.2534" y="4260130.5740" z="0.0000" type="priority" />
	<node id="2535737062" x="494726.0939" y="4260120.9095" z="0.0000" type="priority" />
	<node id="2535737183" x="494750.3443" y="4260276.5725" z="0.0000" type="priority" />
	<node id="2535737063" x="494519.1667" y="4260181.2225" z="0.0000" type="priority" />
	<node id="196098272" x="493416.8893" y="4258793.8243" z="0.0000" type="priority" />
	<node id="2535737180" x="494525.8501" y="4260032.3521" z="0.0000" type="priority" />
	<node id="196099239" x="495931.0532" y="4261437.1217" z="0.0000" type="priority" />
	<node id="7592399640" x="494838.0598" y="4260467.4692" z="0.0000" type="priority" />
	<node id="196100397" x="494202.5654" y="4259513.0356" z="0.0000" type="priority" />
	<node id="2535737079" x="494664.0015" y="4260241.4546" z="0.0000" type="priority" />
	<node id="1810117304" x="494952.7476" y="4260761.8881" z="0.0000" type="priority" />
	<node id="2535737075" x="494545.1483" y="4260196.5729" z="0.0000" type="priority" />
	<node id="2535737076" x="494916.5293" y="4260537.5357" z="0.0000" type="priority" />
	<node id="2535737077" x="494784.3045" y="4260439.0756" z="0.0000" type="priority" />
	<node id="2535737078" x="494564.1936" y="4260001.3456" z="0.0000" type="priority" />
	<node id="2535737071" x="494766.0547" y="4260336.2040" z="0.0000" type="priority" />
	<node id="2535737072" x="494750.3672" y="4260311.5142" z="0.0000" type="priority" />
	<node id="2535737073" x="494951.1598" y="4260566.6301" z="0.0000" type="priority" />
	<node id="2535737074" x="494833.4934" y="4260458.9170" z="0.0000" type="priority" />
	<node id="196110077" x="495212.7009" y="4260570.1649" z="0.0000" type="priority" />
	<node id="2535737070" x="494611.0137" y="4260047.4407" z="0.0000" type="priority" />
	<node id="196094453" x="495229.4279" y="4260586.5328" z="0.0000" type="priority" />
	<node id="196096638" x="495261.1945" y="4260685.7913" z="0.0000" type="priority" />
	<node id="2535737167" x="494310.4779" y="4260532.5829" z="0.0000" type="priority" />
	<node id="504292337" x="493523.3759" y="4258958.7926" z="0.0000" type="priority" />
	<node id="2535737168" x="494755.2655" y="4260293.8127" z="0.0000" type="priority" />
	<node id="2535737169" x="494702.7773" y="4260152.6709" z="0.0000" type="priority" />
	<node id="2535737163" x="494675.8538" y="4260228.9858" z="0.0000" type="priority" />
	<node id="2535737164" x="494853.3916" y="4260482.4391" z="0.0000" type="priority" />
	<node id="2535737165" x="494793.4271" y="4260426.7640" z="0.0000" type="priority" />
	<node id="2535737166" x="494719.8965" y="4260576.6323" z="0.0000" type="priority" />
	<node id="2535737160" x="494738.4123" y="4260114.1217" z="0.0000" type="priority" />
	<node id="2535737161" x="494595.3722" y="4260053.6761" z="0.0000" type="priority" />
	<node id="2535737162" x="494545.8515" y="4260140.5480" z="0.0000" type="priority" />
	<node id="3697032674" x="493059.0174" y="4258505.8817" z="0.0000" type="priority" />
	<node id="196095530" x="494939.1594" y="4260399.3521" z="0.0000" type="priority" />
	<node id="196101263" x="494215.4326" y="4259528.8273" z="0.0000" type="priority" />
	<node id="1810117325" x="494903.4221" y="4260770.7850" z="0.0000" type="priority" />
	<node id="2535737178" x="494701.8423" y="4260163.1574" z="0.0000" type="priority" />
	<node id="2535737179" x="494802.9815" y="4260434.8802" z="0.0000" type="priority" />
	<node id="2535737174" x="494756.1937" y="4260286.3554" z="0.0000" type="priority" />
	<node id="2535737175" x="494310.0785" y="4260547.3299" z="0.0000" type="priority" />
	<node id="2535737176" x="494784.9483" y="4260342.8716" z="0.0000" type="priority" />
	<node id="2535737177" x="494696.4694" y="4260161.9958" z="0.0000" type="priority" />
	<node id="2535737170" x="494742.5813" y="4260327.6309" z="0.0000" type="priority" />
	<node id="2535737171" x="494775.1988" y="4260370.2077" z="0.0000" type="priority" />
	<node id="2535737172" x="494527.5950" y="4260186.7648" z="0.0000" type="priority" />
	<node id="2535737173" x="494612.1300" y="4260060.4113" z="0.0000" type="priority" />
	<node id="3049338239" x="493138.0664" y="4258560.2180" z="0.0000" type="priority" />
	<node id="7209764968" x="496348.6977" y="4261820.5485" z="0.0000" type="priority" />
	<node id="196102388" x="493206.5840" y="4258612.0231" z="0.0000" type="priority" />
	<node id="196095767" x="495781.4100" y="4261194.3595" z="0.0000" type="priority" />
	<node id="196096859" x="495030.9429" y="4260550.1469" z="0.0000" type="priority" />
	<node id="2535737138" x="494885.6321" y="4260510.0590" z="0.0000" type="priority" />
	<node id="2535737139" x="494728.8170" y="4260363.1809" z="0.0000" type="priority" />
	<node id="7592399679" x="494466.4144" y="4260511.7352" z="0.0000" type="priority" />
	<node id="2535737145" x="494961.0762" y="4260568.3992" z="0.0000" type="priority" />
	<node id="3695683586" x="493516.9827" y="4258948.3785" z="0.0000" type="priority" />
	<node id="2535737146" x="494727.7785" y="4260109.7900" z="0.0000" type="priority" />
	<node id="3695683585" x="493515.5154" y="4258945.9940" z="0.0000" type="priority" />
	<node id="2535737147" x="494477.2722" y="4260144.9113" z="0.0000" type="priority" />
	<node id="2535737148" x="494523.3012" y="4260067.2955" z="0.0000" type="priority" />
	<node id="2535737141" x="494505.5518" y="4260102.7265" z="0.0000" type="priority" />
	<node id="2535737142" x="494839.8160" y="4260459.1459" z="0.0000" type="priority" />
	<node id="2535737143" x="494720.2989" y="4260127.7374" z="0.0000" type="priority" />
	<node id="2535737144" x="494537.2984" y="4260028.5161" z="0.0000" type="priority" />
	<node id="2535737140" x="494608.0849" y="4260218.4342" z="0.0000" type="priority" />
	<node id="3049338240" x="493155.5918" y="4258571.9650" z="0.0000" type="priority" />
	<node id="3049338241" x="493172.7158" y="4258583.7234" z="0.0000" type="priority" />
	<node id="1630333091" x="494826.0156" y="4260831.4085" z="0.0000" type="priority" />
	<node id="7592399682" x="494645.6266" y="4260280.8360" z="0.0000" type="priority" />
	<node id="196099799" x="493437.2680" y="4258818.7296" z="0.0000" type="priority" />
	<node id="1630333094" x="494915.8339" y="4260843.9341" z="0.0000" type="priority" />
	<node id="196097938" x="494936.8138" y="4260524.1409" z="0.0000" type="priority" />
	<node id="2535737149" x="494515.1288" y="4260091.7681" z="0.0000" type="priority" />
	<node id="196101282" x="495739.9037" y="4261112.8580" z="0.0000" type="priority" />
	<node id="2535737156" x="494893.1123" y="4260410.6661" z="0.0000" type="priority" />
	<node id="2535737157" x="494739.3438" y="4260271.2202" z="0.0000" type="priority" />
	<node id="2535737158" x="494521.9046" y="4260078.2484" z="0.0000" type="priority" />
	<node id="2535737159" x="494364.4614" y="4260387.4848" z="0.0000" type="priority" />
	<node id="2535737152" x="494730.7829" y="4260116.3459" z="0.0000" type="priority" />
	<node id="2535737153" x="494643.0709" y="4260070.9430" z="0.0000" type="priority" />
	<node id="7592450106" x="495523.3695" y="4261035.7688" z="0.0000" type="priority" />
	<node id="2535737154" x="494314.9946" y="4260556.4031" z="0.0000" type="priority" />
	<node id="2535737155" x="494673.8932" y="4260691.4967" z="0.0000" type="priority" />
	<node id="2535737150" x="494775.1982" y="4260463.0825" z="0.0000" type="priority" />
	<node id="2535737151" x="494760.2261" y="4260465.1894" z="0.0000" type="priority" />
	<node id="196099421" x="494931.1421" y="4260505.1811" z="0.0000" type="priority" />
	<node id="196098453" x="495799.1141" y="4261249.4538" z="0.0000" type="priority" />
	<node id="196110343" x="495764.5189" y="4261143.4149" z="0.0000" type="priority" />
	<node id="196097007" x="494935.3488" y="4260372.3021" z="0.0000" type="priority" />
	<node id="1630333080" x="494908.3643" y="4260863.5014" z="0.0000" type="priority" />
	<node id="1630333084" x="494899.9423" y="4260866.3029" z="0.0000" type="priority" />
	<node id="196102287" x="495283.5154" y="4261050.9969" z="0.0000" type="priority" />
	<node id="1630333087" x="494842.3534" y="4260784.3503" z="0.0000" type="priority" />
	<node id="2535737116" x="494670.0905" y="4260244.0138" z="0.0000" type="priority" />
	<node id="2535737117" x="494742.2937" y="4260128.1890" z="0.0000" type="priority" />
	<node id="2535737119" x="494883.2863" y="4260400.6525" z="0.0000" type="priority" />
	<node id="2535737123" x="494716.1829" y="4260618.5670" z="0.0000" type="priority" />
	<node id="2535737124" x="494533.6762" y="4260190.7552" z="0.0000" type="priority" />
	<node id="2535737125" x="494940.3937" y="4260558.9472" z="0.0000" type="priority" />
	<node id="2535737126" x="494679.8939" y="4260311.4940" z="0.0000" type="priority" />
	<node id="2535737120" x="494758.1336" y="4260479.1608" z="0.0000" type="priority" />
	<node id="1572967229" x="493583.7245" y="4259077.3618" z="0.0000" type="priority" />
	<node id="2535737121" x="494695.0595" y="4260179.4843" z="0.0000" type="priority" />
	<node id="2535737122" x="494606.4039" y="4260052.8587" z="0.0000" type="priority" />
	<node id="196111663" x="495192.9024" y="4260565.6495" z="0.0000" type="priority" />
	<node id="1630333072" x="494966.9458" y="4260541.5984" z="0.0000" type="priority" />
	<node id="2535737127" x="494690.1744" y="4260177.5790" z="0.0000" type="priority" />
	<node id="1630333077" x="494828.8293" y="4260840.2614" z="0.0000" type="priority" />
	<node id="1935599514" x="494959.1197" y="4260577.3329" z="0.0000" type="priority" />
	<node id="2535737128" x="494726.5567" y="4260360.7856" z="0.0000" type="priority" />
	<node id="1630333074" x="494899.8683" y="4260749.8378" z="0.0000" type="priority" />
	<node id="2535737129" x="494847.5364" y="4260463.1023" z="0.0000" type="priority" />
	<node id="1572967212" x="493566.0505" y="4259030.3172" z="0.0000" type="priority" />
	<node id="2535737134" x="494720.0800" y="4260139.6215" z="0.0000" type="priority" />
	<node id="3695683476" x="493534.8260" y="4258977.6468" z="0.0000" type="priority" />
	<node id="2535737135" x="494709.5610" y="4260150.8023" z="0.0000" type="priority" />
	<node id="2535737136" x="494605.2944" y="4260244.7561" z="0.0000" type="priority" />
	<node id="2535737137" x="494848.1298" y="4260477.2939" z="0.0000" type="priority" />
	<node id="2535737130" x="494884.4978" y="4260509.0944" z="0.0000" type="priority" />
	<node id="2535737132" x="494753.4654" y="4260488.4846" z="0.0000" type="priority" />
	<node id="2535737133" x="494688.8904" y="4260464.5372" z="0.0000" type="priority" />
	<node id="6689631399" x="494846.1219" y="4260759.2483" z="0.0000" type="priority" />
	<node id="196110247" x="495260.4570" y="4260662.6118" z="0.0000" type="priority" />
	<node id="196110920" x="495221.4316" y="4260909.4800" z="0.0000" type="priority" />
	<node id="196095966" x="493597.8568" y="4259178.8357" z="0.0000" type="priority" />
	<node id="196094999" x="495107.9773" y="4260587.6046" z="0.0000" type="priority" />
	<node id="1810117281" x="494971.8945" y="4260715.2944" z="0.0000" type="priority" />
	<node id="2535737101" x="494735.1010" y="4260583.6128" z="0.0000" type="priority" />
	<node id="2535737102" x="494848.6397" y="4260456.5105" z="0.0000" type="priority" />
	<node id="2535737103" x="494705.8857" y="4260607.8550" z="0.0000" type="priority" />
	<node id="2535737104" x="494522.8303" y="4260054.4909" z="0.0000" type="priority" />
	<node id="196100202" x="495268.1397" y="4261032.3200" z="0.0000" type="priority" />
	<node id="1810117277" x="494952.2407" y="4260704.5878" z="0.0000" type="priority" />
	<node id="196109380" x="495226.4341" y="4260933.9773" z="0.0000" type="priority" />
	<node id="2535737100" x="494533.3378" y="4260026.7545" z="0.0000" type="priority" />
	<node id="196108605" x="495755.9723" y="4261125.0774" z="0.0000" type="priority" />
	<node id="196108728" x="493577.2255" y="4259054.3647" z="0.0000" type="priority" />
	<node id="3335967423" x="493183.6793" y="4258592.8795" z="0.0000" type="priority" />
	<node id="196099513" x="495962.5581" y="4261473.4346" z="0.0000" type="priority" />
	<node id="2535737109" x="494499.2433" y="4260110.8754" z="0.0000" type="priority" />
	<node id="2535737105" x="494876.7382" y="4260402.5208" z="0.0000" type="priority" />
	<node id="2535737106" x="494469.0793" y="4260139.3245" z="0.0000" type="priority" />
	<node id="1810117271" x="494962.5501" y="4260735.3288" z="0.0000" type="priority" />
	<node id="2535737107" x="494730.8083" y="4260128.5738" z="0.0000" type="priority" />
	<node id="196108277" x="494950.0772" y="4260536.9375" z="0.0000" type="priority" />
	<node id="1810117270" x="494953.6534" y="4260718.5681" z="0.0000" type="priority" />
	<node id="2535737108" x="494706.5311" y="4260621.2920" z="0.0000" type="priority" />
	<node id="2535737112" x="494500.1810" y="4260117.3993" z="0.0000" type="priority" />
	<node id="2535737113" x="494826.2795" y="4260455.9700" z="0.0000" type="priority" />
	<node id="2535737114" x="494799.7164" y="4260308.2198" z="0.0000" type="priority" />
	<node id="2535737115" x="494322.8905" y="4260561.6904" z="0.0000" type="priority" />
	<node id="196100312" x="494403.5233" y="4259789.2201" z="0.0000" type="priority" />
	<node id="2535737110" x="494785.5217" y="4260420.0449" z="0.0000" type="priority" />
	<node id="2535737111" x="494712.5880" y="4260138.6944" z="0.0000" type="priority" />
	<node id="196111442" x="495533.1725" y="4261038.6150" z="0.0000" type="priority" />
	<node id="3335967413" x="493219.8172" y="4258623.4187" z="0.0000" type="priority" />
	<node id="196112204" x="495299.8604" y="4261057.1235" z="0.0000" type="priority" />
	<node id="196095702" x="495125.2866" y="4260585.8076" z="0.0000" type="priority" />
	<node id="196100346" x="495222.7038" y="4260878.5875" z="0.0000" type="priority" />
	<node id="3695683602" x="493527.5507" y="4258965.6466" z="0.0000" type="priority" />
	<node id="2535743430" x="494529.0580" y="4260362.8485" z="0.0000" type="priority" />
	<node id="3335967440" x="493208.7837" y="4258613.9186" z="0.0000" type="priority" />
	<node id="6689631404" x="494849.3806" y="4260782.1043" z="0.0000" type="priority" />
	<node id="2535743431" x="494587.5726" y="4260230.5650" z="0.0000" type="priority" />
	<node id="6689631403" x="494851.2004" y="4260777.7979" z="0.0000" type="priority" />
	<node id="6689631406" x="494854.7942" y="4260765.8783" z="0.0000" type="priority" />
	<node id="6689631405" x="494846.0070" y="4260783.9263" z="0.0000" type="priority" />
	<node id="2535743434" x="494526.2490" y="4259926.5945" z="0.0000" type="priority" />
	<node id="6689631400" x="494850.7180" y="4260759.9888" z="0.0000" type="priority" />
	<node id="2535743436" x="494466.8549" y="4260303.0829" z="0.0000" type="priority" />
	<node id="3335967446" x="493198.0210" y="4258604.8733" z="0.0000" type="priority" />
	<node id="6689631402" x="494852.3490" y="4260774.0355" z="0.0000" type="priority" />
	<node id="2535743437" x="494457.5441" y="4260105.4781" z="0.0000" type="priority" />
	<node id="6689631401" x="494853.4892" y="4260770.5395" z="0.0000" type="priority" />
	<node id="7592399341" x="493349.5734" y="4258736.0246" z="0.0000" type="priority" />
	<node id="1810117295" x="494955.9808" y="4260703.1874" z="0.0000" type="priority" />
	<node id="7592399225" x="494537.7680" y="4259898.3470" z="0.0000" type="priority" />
	<node id="1810117287" x="494962.7225" y="4260746.0698" z="0.0000" type="priority" />
</nodes>
