<?xml version="1.0" ?>
<!-- Generated by VSimRTI -->
<routes>
	<vType id="default" length="7.5" maxSpeed="50" minGap="2.0" carFollowModel="Krauss" accel="0.80" decel="4.5" sigma="0.5" tau="1"/>
	<route id="1" edges="96176787_1114698588_1114698526_1114698602 96176787_1114698588_1114698526_1114698593 96176787_1114698588_1114698526_1114698629 96176787_1114698588_1114698526_1114698615 96176787_1114698588_1114698526_1114698522 96176787_1114698588_1114698526_1114698639 96176787_1114698588_1114698526_1114698562 96176787_1114698588_1114698526_1114698553 96176787_1114698588_1114698526_1114698577 96176787_1114698588_1114698526_1114698571 96176787_1114698588_1114698526_1114698600 96176787_1114698588_1114698526_1114698592 96176787_1114698588_1114698526_1114698608 96176787_1114698588_1114698526_1114698595 96176787_1114698588_1114698526_1114698634 96176787_1114698588_1114698526_1114698622 96175189_1114698526_1114693344_1114698526 96175189_1114698526_1114693344_1114693342 96175189_1114698526_1114693344_1114693346 96175189_1114698526_1114693344_1114693343 96175189_1114698526_1114693344_1114693362 96175189_1114698526_1114693344_1114698564 96175189_1114698526_1114693344_1114693353 96175189_1114693344_1114698627_1114693344 96176789_1114698627_1713449228_1114698627 96176789_1114698627_1713449228_1114698613 96176789_1114698627_1713449228_1114698521 96176789_1114698627_1713449228_1114698638 96176789_1114698627_1713449228_1114698556 96176789_1114698627_1713449228_1114698549 159252278_1713449228_1713449148_1713449228 300954532_1713449148_1114706519_1713449148 300954532_1713449148_1114706519_1114706648 96179130_1114706519_1114706538_1114706519 96179130_1114706519_1114706538_1114706571 96179130_1114706538_1114706587_1114706538 96179130_1114706538_1114706587_1114706551 96179130_1114706538_1114706587_1114706596 96179125_1114706587_1114614439_1114706587 96179125_1114706587_1114614439_1114706609 96170461_1114614439_1114614410_1114614439 96170461_1114614439_1114614410_1114614422" />
	<route id="2" edges="96170461_1114614410_1114614439_1114614410 96170461_1114614410_1114614439_1114614422 96179125_1114614439_1114706587_1114614439 96179125_1114614439_1114706587_1114706609 96179130_1114706587_1114706538_1114706587 96179130_1114706587_1114706538_1114706596 96179130_1114706587_1114706538_1114706551 96179130_1114706538_1114706519_1114706538 96179130_1114706538_1114706519_1114706571 300954532_1114706519_1713449148_1114706519 300954532_1114706519_1713449148_1114706648 159252278_1713449148_1713449228_1713449148 96176789_1713449228_1114698627_1713449228 96176789_1713449228_1114698627_1114698549 96176789_1713449228_1114698627_1114698556 96176789_1713449228_1114698627_1114698638 96176789_1713449228_1114698627_1114698521 96176789_1713449228_1114698627_1114698613 96175189_1114698627_1114698526_1114698627 96175189_1114698627_1114698526_1114693360 96175189_1114698627_1114698526_1114693350 96176787_1114698526_1114698588_1114698526 96176787_1114698526_1114698588_1114698622 96176787_1114698526_1114698588_1114698634 96176787_1114698526_1114698588_1114698595 96176787_1114698526_1114698588_1114698608 96176787_1114698526_1114698588_1114698592 96176787_1114698526_1114698588_1114698600 96176787_1114698526_1114698588_1114698571 96176787_1114698526_1114698588_1114698577 96176787_1114698526_1114698588_1114698553 96176787_1114698526_1114698588_1114698562 96176787_1114698526_1114698588_1114698639 96176787_1114698526_1114698588_1114698522 96176787_1114698526_1114698588_1114698615 96176787_1114698526_1114698588_1114698629 96176787_1114698526_1114698588_1114698593 96176787_1114698526_1114698588_1114698602 96176787_1114698526_1114698588_1114698572 96176787_1114698526_1114698588_7184885457 96176787_1114698588_1114698526_1114698588 96176787_1114698588_1114698526_7184885457 96176787_1114698588_1114698526_1114698572" />
	<route id="3" edges="96179135_1114706612_1114706527_1114706591 96179135_1114706612_1114706527_1114706605 96179135_1114706612_1114706527_1114706557 96179135_1114706612_1114706527_1114706575 96179125_1114706527_1114706612_1114706527 96179125_1114706612_1114706531_1114706612 96179125_1114706612_1114706531_1114706565 96179125_1114706612_1114706531_1114706550 96179125_1114706612_1114706531_1114706595 96179125_1114706612_1114706531_1114706584 96179125_1114706612_1114706531_1114706600 96179125_1114706612_1114706531_1114706644 96179129_1114706531_1114706624_1114706531 300954532_1114706624_1114706519_1114706624 300954532_1114706624_1114706519_1114706663 300954532_1114706624_1114706519_1114706561 300954532_1114706519_1713449148_1114706519 300954532_1114706519_1713449148_1114706648 159252278_1713449148_1713449228_1713449148 96176789_1713449228_1114698594_1713449228 96176789_1713449228_1114698594_1114698574 96176789_1713449228_1114698594_1114698568 96176789_1713449228_1114698594_1114698597 96176789_1713449228_1114698594_1114698590 96176789_1713449228_1114698594_1114698603" />
	<route id="4" edges="96176789_1114698594_1713449228_1114698594 96176789_1114698594_1713449228_1114698603 96176789_1114698594_1713449228_1114698590 96176789_1114698594_1713449228_1114698597 96176789_1114698594_1713449228_1114698568 96176789_1114698594_1713449228_1114698574 159252278_1713449228_1713449148_1713449228 300954532_1713449148_1114706519_1713449148 300954532_1713449148_1114706519_1114706648 300954532_1114706519_1114706624_1114706519 300954532_1114706519_1114706624_1114706561 300954532_1114706519_1114706624_1114706663 96179129_1114706624_1114706531_1114706624 96179125_1114706531_1114706612_1114706531 96179125_1114706531_1114706612_1114706644 96179125_1114706531_1114706612_1114706600 96179125_1114706531_1114706612_1114706584 96179125_1114706531_1114706612_1114706595 96179125_1114706531_1114706612_1114706550 96179125_1114706531_1114706612_1114706565 96179135_1114706612_1114706527_1114706612 96179135_1114706612_1114706527_1114706641 96179135_1114706612_1114706527_1114706661 96179135_1114706612_1114706527_1114706638 96179135_1114706612_1114706527_1114706646 96179135_1114706612_1114706527_1114706614 96179135_1114706612_1114706527_1114706545 96179135_1114706612_1114706527_1114706642 96179135_1114706612_1114706527_1114706662 96179135_1114706612_1114706527_1114706622 96179135_1114706612_1114706527_1114706625 96179135_1114706612_1114706527_1114706592 96179135_1114706612_1114706527_1114706607 96179135_1114706612_1114706527_1114706563 96179135_1114706612_1114706527_1114706576 96179135_1114706612_1114706527_1114698624" />
	<route id="5" edges="96176789_1114698594_1713449228_1114698594 96176789_1114698594_1713449228_1114698603 96176789_1114698594_1713449228_1114698590 96176789_1114698594_1713449228_1114698597 96176789_1114698594_1713449228_1114698568 96176789_1114698594_1713449228_1114698574 159252278_1713449228_1713449148_1713449228 300954532_1713449148_1114706519_1713449148 300954532_1713449148_1114706519_1114706648 96179130_1114706519_1114706538_1114706519 96179130_1114706519_1114706538_1114706571 96179130_1114706538_1114706587_1114706538 96179130_1114706538_1114706587_1114706551 96179130_1114706538_1114706587_1114706596 96179125_1114706587_1114614439_1114706587 96179125_1114706587_1114614439_1114706609 96170461_1114614439_1114614410_1114614439 96170461_1114614439_1114614410_1114614422" />
	<route id="6" edges="96170461_1114614410_1114614439_1114614410 96170461_1114614410_1114614439_1114614422 96179125_1114614439_1114706587_1114614439 96179125_1114614439_1114706587_1114706609 96179130_1114706587_1114706538_1114706587 96179130_1114706587_1114706538_1114706596 96179130_1114706587_1114706538_1114706551 96179130_1114706538_1114706519_1114706538 96179130_1114706538_1114706519_1114706571 300954532_1114706519_1713449148_1114706519 300954532_1114706519_1713449148_1114706648 159252278_1713449148_1713449228_1713449148 96176789_1713449228_1114698594_1713449228 96176789_1713449228_1114698594_1114698574 96176789_1713449228_1114698594_1114698568 96176789_1713449228_1114698594_1114698597 96176789_1713449228_1114698594_1114698590 96176789_1713449228_1114698594_1114698603" />
	<route id="7" edges="96170461_1114614410_1114614439_1114614410 96170461_1114614410_1114614439_1114614422 96179125_1114614439_1114706587_1114614439 96179125_1114614439_1114706587_1114706609 96179130_1114706587_1114706538_1114706587 96179130_1114706587_1114706538_1114706596 96179130_1114706587_1114706538_1114706551 96179130_1114706538_1114706519_1114706538 96179130_1114706538_1114706519_1114706571 300954532_1114706519_1713449148_1114706519 300954532_1114706519_1713449148_1114706648 159252278_1713449148_1713449228_1713449148 96176789_1713449228_1114698627_1713449228 96176789_1713449228_1114698627_1114698549 96176789_1713449228_1114698627_1114698556 96176789_1713449228_1114698627_1114698638 96176789_1713449228_1114698627_1114698521 96176789_1713449228_1114698627_1114698613 96175189_1114698627_1114698526_1114698627 96175189_1114698627_1114698526_1114693360 96175189_1114698627_1114698526_1114693350 96176787_1114698526_1114698588_1114698526 96176787_1114698526_1114698588_1114698622 96176787_1114698526_1114698588_1114698634 96176787_1114698526_1114698588_1114698595 96176787_1114698526_1114698588_1114698608 96176787_1114698526_1114698588_1114698592 96176787_1114698526_1114698588_1114698600 96176787_1114698526_1114698588_1114698571 96176787_1114698526_1114698588_1114698577 96176787_1114698526_1114698588_1114698553 96176787_1114698526_1114698588_1114698562 96176787_1114698526_1114698588_1114698639 96176787_1114698526_1114698588_1114698522 96176787_1114698526_1114698588_1114698615 96176787_1114698526_1114698588_1114698629 96176787_1114698526_1114698588_1114698593 96176787_1114698526_1114698588_1114698602 96176787_1114698526_1114698588_1114698572 96176787_1114698526_1114698588_7184885457 96176787_1114698588_1114698526_1114698588 96176787_1114698588_1114698526_7184885457 96176787_1114698588_1114698526_1114698572 96176787_1114698588_1114698526_1114698602" />
	<route id="8" edges="96176787_1114698588_1114698526_1114698593 96176787_1114698588_1114698526_1114698629 96176787_1114698588_1114698526_1114698615 96176787_1114698588_1114698526_1114698522 96176787_1114698588_1114698526_1114698639 96176787_1114698588_1114698526_1114698562 96176787_1114698588_1114698526_1114698553 96176787_1114698588_1114698526_1114698577 96176787_1114698588_1114698526_1114698571 96176787_1114698588_1114698526_1114698600 96176787_1114698588_1114698526_1114698592 96176787_1114698588_1114698526_1114698608 96176787_1114698588_1114698526_1114698595 96176787_1114698588_1114698526_1114698634 96176787_1114698588_1114698526_1114698622 96175189_1114698526_1114693344_1114698526 96175189_1114698526_1114693344_1114693342 96175189_1114698526_1114693344_1114693346 96175189_1114698526_1114693344_1114693343 96175189_1114698526_1114693344_1114693362 96175189_1114698526_1114693344_1114698564 96175189_1114698526_1114693344_1114693353 96175189_1114693344_1114698627_1114693344 96176789_1114698627_1713449228_1114698627 96176789_1114698627_1713449228_1114698613 96176789_1114698627_1713449228_1114698521 96176789_1114698627_1713449228_1114698638 96176789_1114698627_1713449228_1114698556 96176789_1114698627_1713449228_1114698549 159252278_1713449228_1713449148_1713449228 300954532_1713449148_1114706519_1713449148 300954532_1713449148_1114706519_1114706648 96179130_1114706519_1114706538_1114706519 96179130_1114706519_1114706538_1114706571 96179130_1114706538_1114706587_1114706538 96179130_1114706538_1114706587_1114706551 96179130_1114706538_1114706587_1114706596 96179125_1114706587_1114614439_1114706587 96179125_1114706587_1114614439_1114706609 96170461_1114614439_1114614410_1114614439 96170461_1114614439_1114614410_1114614422" />
</routes>