<nodes>
	<node id="1114706645" x="635525.5229" y="4347322.9720" z="0.0000" type="priority" />
	<node id="1114706523" x="635053.0544" y="4346907.7394" z="0.0000" type="priority" />
	<node id="1114706644" x="635270.6277" y="4347126.5577" z="0.0000" type="priority" />
	<node id="1114708789" x="635006.7626" y="4347720.1653" z="0.0000" type="priority" />
	<node id="1114706526" x="635082.8528" y="4346872.4738" z="0.0000" type="priority" />
	<node id="1114706646" x="635534.2748" y="4346963.4369" z="0.0000" type="priority" />
	<node id="1114693362" x="634901.9682" y="4346896.7904" z="0.0000" type="priority" />
	<node id="1114706641" x="635527.1809" y="4347068.8363" z="0.0000" type="priority" />
	<node id="1114708788" x="635508.5253" y="4347747.3874" z="0.0000" type="priority" />
	<node id="1114706640" x="635025.5443" y="4347420.0651" z="0.0000" type="priority" />
	<node id="1114693360" x="634877.5858" y="4346909.8579" z="0.0000" type="priority" />
	<node id="1114708786" x="635005.2333" y="4347830.0575" z="0.0000" type="priority" />
	<node id="1114706521" x="635018.0828" y="4347547.6175" z="0.0000" type="priority" />
	<node id="1114706642" x="635537.2342" y="4346889.3950" z="0.0000" type="priority" />
	<node id="1114708783" x="635286.6902" y="4347734.5920" z="0.0000" type="priority" />
	<node id="1114614422" x="635519.9459" y="4347538.8718" z="0.0000" type="priority" />
	<node id="1114708781" x="635002.3942" y="4347804.1080" z="0.0000" type="priority" />
	<node id="1713449228" x="634857.5042" y="4347367.9912" z="0.0000" type="priority" />
	<node id="1114708780" x="635030.7320" y="4347842.1109" z="0.0000" type="priority" />
	<node id="1114614417" x="635509.1469" y="4347734.4424" z="0.0000" type="priority" />
	<node id="1114687919" x="635451.3930" y="4348140.0325" z="0.0000" type="priority" />
	<node id="1114687916" x="635218.5532" y="4348669.4481" z="0.0000" type="priority" />
	<node id="1114687994" x="635291.5792" y="4348532.9180" z="0.0000" type="priority" />
	<node id="1114687995" x="635499.8721" y="4347911.8214" z="0.0000" type="priority" />
	<node id="1114706638" x="635530.5669" y="4347011.4877" z="0.0000" type="priority" />
	<node id="1114706519" x="635033.1089" y="4347308.0126" z="0.0000" type="priority" />
	<node id="1114693353" x="634898.6722" y="4346907.7353" z="0.0000" type="priority" />
	<node id="1114706658" x="635084.9840" y="4346846.0663" z="0.0000" type="priority" />
	<node id="1114706536" x="635069.8491" y="4347070.9149" z="0.0000" type="priority" />
	<node id="1114706531" x="635266.6949" y="4347199.6392" z="0.0000" type="priority" />
	<node id="1114706533" x="635538.2815" y="4347138.8260" z="0.0000" type="priority" />
	<node id="1114693350" x="634872.1495" y="4346899.8057" z="0.0000" type="priority" />
	<node id="1114698521" x="634877.1226" y="4347065.5852" z="0.0000" type="priority" />
	<node id="1114708792" x="635502.3282" y="4347868.7557" z="0.0000" type="priority" />
	<node id="1114698522" x="634321.6798" y="4346993.1530" z="0.0000" type="priority" />
	<node id="1114708793" x="635117.6395" y="4347846.5899" z="0.0000" type="priority" />
	<node id="1114614410" x="635516.1210" y="4347612.0661" z="0.0000" type="priority" />
	<node id="1114708790" x="635011.7852" y="4347623.8444" z="0.0000" type="priority" />
	<node id="1114708791" x="635065.3617" y="4347723.9210" z="0.0000" type="priority" />
	<node id="1114698526" x="634872.8731" y="4346897.3869" z="0.0000" type="priority" />
	<node id="1114687925" x="635363.2711" y="4348430.1705" z="0.0000" type="priority" />
	<node id="1114687923" x="635456.1613" y="4348068.6307" z="0.0000" type="priority" />
	<node id="1114687927" x="635231.8638" y="4348639.7593" z="0.0000" type="priority" />
	<node id="1114687928" x="635450.4033" y="4348090.1460" z="0.0000" type="priority" />
	<node id="1114687922" x="635234.8494" y="4348627.7989" z="0.0000" type="priority" />
	<node id="1114706527" x="635542.5436" y="4347093.1606" z="0.0000" type="priority" />
	<node id="1114706648" x="635029.2807" y="4347342.2397" z="0.0000" type="priority" />
	<node id="1114687920" x="635375.0869" y="4348412.0907" z="0.0000" type="priority" />
	<node id="1114693344" x="634888.5674" y="4346913.1450" z="0.0000" type="priority" />
	<node id="1114698638" x="634873.2194" y="4347127.6765" z="0.0000" type="priority" />
	<node id="1114706545" x="635536.0013" y="4346919.1597" z="0.0000" type="priority" />
	<node id="1114698639" x="634334.8075" y="4346983.0653" z="0.0000" type="priority" />
	<node id="1114693342" x="634875.4456" y="4346888.8608" z="0.0000" type="priority" />
	<node id="1114693343" x="634896.5320" y="4346886.7383" z="0.0000" type="priority" />
	<node id="1114706542" x="635075.8301" y="4346835.9052" z="0.0000" type="priority" />
	<node id="1114706663" x="635037.1940" y="4347203.0384" z="0.0000" type="priority" />
	<node id="1114706662" x="635538.2603" y="4346871.5500" z="0.0000" type="priority" />
	<node id="1114698597" x="634844.1570" y="4347584.1561" z="0.0000" type="priority" />
	<node id="1114706540" x="635021.4115" y="4347493.3652" z="0.0000" type="priority" />
	<node id="1114706661" x="635528.1146" y="4347042.8854" z="0.0000" type="priority" />
	<node id="1114698634" x="634729.5869" y="4346888.5411" z="0.0000" type="priority" />
	<node id="1114693346" x="634885.5418" y="4346883.4510" z="0.0000" type="priority" />
	<node id="1114687972" x="635492.8063" y="4347955.4732" z="0.0000" type="priority" />
	<node id="1114706538" x="635260.0995" y="4347322.3106" z="0.0000" type="priority" />
	<node id="1114706557" x="635556.6016" y="4347041.0041" z="0.0000" type="priority" />
	<node id="1114698627" x="634886.1719" y="4346912.4264" z="0.0000" type="priority" />
	<node id="1114698629" x="634305.5885" y="4347025.0157" z="0.0000" type="priority" />
	<node id="1114687990" x="635504.6605" y="4347827.8528" z="0.0000" type="priority" />
	<node id="1114706553" x="635044.4695" y="4347058.8080" z="0.0000" type="priority" />
	<node id="1114687991" x="635449.7419" y="4348171.0334" z="0.0000" type="priority" />
	<node id="1114706555" x="635082.4759" y="4346838.8845" z="0.0000" type="priority" />
	<node id="1114706551" x="635318.3608" y="4347325.8069" z="0.0000" type="priority" />
	<node id="1114698588" x="634365.0848" y="4347166.5204" z="0.0000" type="priority" />
	<node id="1114706550" x="635324.2936" y="4347080.0830" z="0.0000" type="priority" />
	<node id="1114698622" x="634817.0916" y="4346894.0368" z="0.0000" type="priority" />
	<node id="1114698624" x="635563.0558" y="4346937.6808" z="0.0000" type="priority" />
	<node id="1114687903" x="635181.2630" y="4348739.5428" z="0.0000" type="priority" />
	<node id="1114698590" x="634843.3677" y="4347612.8627" z="0.0000" type="priority" />
	<node id="1114687902" x="635450.6871" y="4348116.5622" z="0.0000" type="priority" />
	<node id="1114698592" x="634583.3507" y="4346881.0903" z="0.0000" type="priority" />
	<node id="1114698593" x="634306.0299" y="4347040.4990" z="0.0000" type="priority" />
	<node id="1114698594" x="634849.4950" y="4347638.3361" z="0.0000" type="priority" />
	<node id="1114698595" x="634661.4626" y="4346885.2567" z="0.0000" type="priority" />
	<node id="1114687983" x="635433.3765" y="4348269.7665" z="0.0000" type="priority" />
	<node id="1114687988" x="635296.0133" y="4348523.0255" z="0.0000" type="priority" />
	<node id="1114687986" x="635176.9869" y="4348751.2921" z="0.0000" type="priority" />
	<node id="1114698615" x="634312.2740" y="4347006.1245" z="0.0000" type="priority" />
	<node id="1114706600" x="635272.4003" y="4347093.4829" z="0.0000" type="priority" />
	<node id="1114706602" x="635051.7196" y="4346888.6101" z="0.0000" type="priority" />
	<node id="1114706563" x="635565.8973" y="4346891.3246" z="0.0000" type="priority" />
	<node id="1114706565" x="635443.2824" y="4347086.9087" z="0.0000" type="priority" />
	<node id="1114698574" x="634852.3997" y="4347447.6802" z="0.0000" type="priority" />
	<node id="1713449148" x="635027.6348" y="4347376.5268" z="0.0000" type="priority" />
	<node id="1114698577" x="634464.7284" y="4346918.4579" z="0.0000" type="priority" />
	<node id="1114706561" x="635033.1310" y="4347271.7990" z="0.0000" type="priority" />
	<node id="1114698613" x="634882.9626" y="4346972.8089" z="0.0000" type="priority" />
	<node id="1114687950" x="635238.3667" y="4348617.5241" z="0.0000" type="priority" />
	<node id="1114688005" x="635194.2143" y="4348714.6437" z="0.0000" type="priority" />
	<node id="1114687951" x="635465.4543" y="4348035.3534" z="0.0000" type="priority" />
	<node id="1114688004" x="635446.0420" y="4348202.7426" z="0.0000" type="priority" />
	<node id="1114688009" x="635228.7430" y="4348648.5645" z="0.0000" type="priority" />
	<node id="1114688007" x="635335.3965" y="4348465.7013" z="0.0000" type="priority" />
	<node id="1114706612" x="635525.3395" y="4347092.3846" z="0.0000" type="priority" />
	<node id="1114706614" x="635535.4651" y="4346936.1250" z="0.0000" type="priority" />
	<node id="1114706575" x="635556.6159" y="4347054.1045" z="0.0000" type="priority" />
	<node id="1114698608" x="634611.5990" y="4346882.0545" z="0.0000" type="priority" />
	<node id="1114706574" x="635059.0505" y="4346838.0019" z="0.0000" type="priority" />
	<node id="1114706576" x="635563.6570" y="4346923.9250" z="0.0000" type="priority" />
	<node id="1114706571" x="635218.0113" y="4347319.7831" z="0.0000" type="priority" />
	<node id="1114698564" x="634901.2540" y="4346899.1650" z="0.0000" type="priority" />
	<node id="1114706570" x="635077.9715" y="4346933.1382" z="0.0000" type="priority" />
	<node id="1114706573" x="635047.5010" y="4346994.3037" z="0.0000" type="priority" />
	<node id="1114706572" x="635015.5796" y="4347595.0565" z="0.0000" type="priority" />
	<node id="1114698600" x="634553.3861" y="4346884.5705" z="0.0000" type="priority" />
	<node id="1114698568" x="634847.5097" y="4347509.4548" z="0.0000" type="priority" />
	<node id="1114698602" x="634313.6211" y="4347064.7869" z="0.0000" type="priority" />
	<node id="1114698603" x="634844.0047" y="4347626.9508" z="0.0000" type="priority" />
	<node id="1114687969" x="635276.8613" y="4348558.1527" z="0.0000" type="priority" />
	<node id="1114698571" x="634515.2897" y="4346895.1714" z="0.0000" type="priority" />
	<node id="1114698572" x="634317.2851" y="4347072.0328" z="0.0000" type="priority" />
	<node id="1114706609" x="635529.6353" y="4347347.5783" z="0.0000" type="priority" />
	<node id="1114687960" x="635408.0698" y="4348338.7803" z="0.0000" type="priority" />
	<node id="1114687965" x="635497.4397" y="4347934.1271" z="0.0000" type="priority" />
	<node id="1114706605" x="635558.5078" y="4347000.3047" z="0.0000" type="priority" />
	<node id="1114687966" x="635439.9075" y="4348235.5197" z="0.0000" type="priority" />
	<node id="1114706607" x="635566.7070" y="4346872.5211" z="0.0000" type="priority" />
	<node id="1114687964" x="635287.5138" y="4348542.4506" z="0.0000" type="priority" />
	<node id="1114706623" x="635080.3093" y="4346909.2543" z="0.0000" type="priority" />
	<node id="1114706589" x="635066.2739" y="4346835.0294" z="0.0000" type="priority" />
	<node id="1114706622" x="635543.8761" y="4346864.7421" z="0.0000" type="priority" />
	<node id="1114706625" x="635554.6558" y="4346863.7414" z="0.0000" type="priority" />
	<node id="1114706624" x="635039.5140" y="4347186.1594" z="0.0000" type="priority" />
	<node id="1114706587" x="635527.9311" y="4347337.3684" z="0.0000" type="priority" />
	<node id="1114706620" x="635055.8085" y="4346845.8059" z="0.0000" type="priority" />
	<node id="1114698553" x="634414.3807" y="4346943.3915" z="0.0000" type="priority" />
	<node id="1114706584" x="635275.4339" y="4347083.7659" z="0.0000" type="priority" />
	<node id="1114614443" x="635514.4767" y="4347636.6947" z="0.0000" type="priority" />
	<node id="1114698556" x="634864.7677" y="4347249.2502" z="0.0000" type="priority" />
	<node id="1114614439" x="635523.2885" y="4347472.0859" z="0.0000" type="priority" />
	<node id="1114698562" x="634372.1161" y="4346963.5354" z="0.0000" type="priority" />
	<node id="1114698549" x="634859.2216" y="4347338.5124" z="0.0000" type="priority" />
	<node id="1114708778" x="635328.4880" y="4347858.2799" z="0.0000" type="priority" />
	<node id="1114706515" x="635072.7309" y="4347029.0445" z="0.0000" type="priority" />
	<node id="1114708779" x="635017.6412" y="4347838.6095" z="0.0000" type="priority" />
	<node id="1114706597" x="635037.5826" y="4347166.5980" z="0.0000" type="priority" />
	<node id="1114706596" x="635445.7269" y="4347332.0674" z="0.0000" type="priority" />
	<node id="1114706592" x="635562.0347" y="4346866.2452" z="0.0000" type="priority" />
	<node id="1114614431" x="635511.2979" y="4347698.0214" z="0.0000" type="priority" />
	<node id="1114706595" x="635285.5756" y="4347078.2242" z="0.0000" type="priority" />
	<node id="1114706591" x="635561.9868" y="4346951.5284" z="0.0000" type="priority" />
	<node id="3050001480" x="635309.0173" y="4348505.5768" z="0.0000" type="priority" />
	<node id="1114687947" x="635424.6833" y="4348300.8228" z="0.0000" type="priority" />
	<node id="1114687948" x="635382.5560" y="4348398.3652" z="0.0000" type="priority" />
	<node id="1114687946" x="635482.2554" y="4347986.1420" z="0.0000" type="priority" />
	<node id="7184885457" x="634328.5864" y="4347094.8636" z="0.0000" type="priority" />
	<node id="3051507485" x="635244.7328" y="4348607.1765" z="0.0000" type="priority" />
	<node id="1114687943" x="635394.5001" y="4348372.8939" z="0.0000" type="priority" />
	<node id="1114706627" x="635530.9818" y="4347228.7348" z="0.0000" type="priority" />
	<node id="1114687944" x="635250.9656" y="4348597.0487" z="0.0000" type="priority" />
	<node id="1114706629" x="635043.7843" y="4347069.4871" z="0.0000" type="priority" />
</nodes>
