<?xml version="1.0" encoding="UTF-8"?>

<!-- generated on Sun Jul 12 18:43:13 2020 by Eclipse SUMO netconvert Version 1.2.0
<configuration xmlns:xsi="http://www.w3.org/2001/XMLSchema-instance" xsi:noNamespaceSchemaLocation="http://sumo.dlr.de/xsd/netconvertConfiguration.xsd">

    <input>
        <node-files value="/home/vsimrti/scenarios/ids/sumo/gualtar13/gualtar13.nod.xml"/>
        <edge-files value="/home/vsimrti/scenarios/ids/sumo/gualtar13/gualtar13.edg.xml"/>
        <connection-files value="/home/vsimrti/scenarios/ids/sumo/gualtar13/gualtar13.con.xml"/>
    </input>

    <output>
        <output-file value="/home/vsimrti/scenarios/ids/sumo/gualtar13/gualtar13.net.xml"/>
    </output>

</configuration>
-->

<net version="1.1" junctionCornerDetail="5" limitTurnSpeed="5.50" xmlns:xsi="http://www.w3.org/2001/XMLSchema-instance" xsi:noNamespaceSchemaLocation="http://sumo.dlr.de/xsd/net_file.xsd">

    <location netOffset="-634305.59,-4346835.03" convBoundary="0.00,0.00,1261.12,1916.26" origBoundary="634305.59,4346835.03,635566.71,4348751.29" projParameter="!"/>

    <edge id=":1114614410_0" function="internal">
        <lane id=":1114614410_0_0" index="0" speed="3.65" length="4.67" shape="1212.13,777.12 1211.27,778.28 1210.45,778.63 1209.67,778.19 1208.93,776.95"/>
    </edge>
    <edge id=":1114614417_0" function="internal">
        <lane id=":1114614417_0_0" index="0" speed="8.33" length="0.28" shape="1205.16,899.36 1205.15,899.64"/>
    </edge>
    <edge id=":1114614417_1" function="internal">
        <lane id=":1114614417_1_0" index="0" speed="8.33" length="0.31" shape="1201.95,899.48 1201.97,899.17"/>
    </edge>
    <edge id=":1114614422_0" function="internal">
        <lane id=":1114614422_0_0" index="0" speed="8.33" length="0.30" shape="1215.96,703.77 1215.95,704.08"/>
    </edge>
    <edge id=":1114614422_1" function="internal">
        <lane id=":1114614422_1_0" index="0" speed="8.33" length="0.30" shape="1212.75,703.91 1212.77,703.61"/>
    </edge>
    <edge id=":1114614431_0" function="internal">
        <lane id=":1114614431_0_0" index="0" speed="8.33" length="0.31" shape="1207.31,862.93 1207.30,863.23"/>
    </edge>
    <edge id=":1114614431_1" function="internal">
        <lane id=":1114614431_1_0" index="0" speed="8.33" length="0.29" shape="1204.10,863.05 1204.12,862.76"/>
    </edge>
    <edge id=":1114614439_0" function="internal">
        <lane id=":1114614439_0_0" index="0" speed="8.33" length="0.30" shape="1219.31,636.99 1219.29,637.29"/>
    </edge>
    <edge id=":1114614439_1" function="internal">
        <lane id=":1114614439_1_0" index="0" speed="8.33" length="0.30" shape="1216.09,637.13 1216.11,636.83"/>
    </edge>
    <edge id=":1114614443_0" function="internal">
        <lane id=":1114614443_0_0" index="0" speed="3.65" length="4.67" shape="1207.29,801.58 1208.15,800.43 1208.97,800.07 1209.75,800.51 1210.49,801.75"/>
    </edge>
    <edge id=":1114687902_0" function="internal">
        <lane id=":1114687902_0_0" index="0" speed="8.33" length="0.31" shape="1143.50,1281.72 1143.50,1281.41"/>
    </edge>
    <edge id=":1114687902_1" function="internal">
        <lane id=":1114687902_1_0" index="0" speed="8.33" length="0.25" shape="1146.70,1281.37 1146.70,1281.63"/>
    </edge>
    <edge id=":1114687903_0" function="internal">
        <lane id=":1114687903_0_0" index="0" speed="8.33" length="0.21" shape="877.19,1905.07 877.16,1905.12 877.14,1905.16 877.13,1905.20 877.11,1905.26"/>
    </edge>
    <edge id=":1114687903_1" function="internal">
        <lane id=":1114687903_1_0" index="0" speed="8.33" length="0.63" shape="874.10,1904.16 874.16,1903.99 874.21,1903.87 874.27,1903.75 874.35,1903.59"/>
    </edge>
    <edge id=":1114687916_0" function="internal">
        <lane id=":1114687916_0_0" index="0" speed="8.33" length="0.28" shape="914.45,1835.02 914.32,1835.27"/>
    </edge>
    <edge id=":1114687916_1" function="internal">
        <lane id=":1114687916_1_0" index="0" speed="8.33" length="0.16" shape="911.50,1833.76 911.57,1833.62"/>
    </edge>
    <edge id=":1114687919_0" function="internal">
        <lane id=":1114687919_0_0" index="0" speed="8.33" length="0.40" shape="1147.40,1304.82 1147.40,1305.22"/>
    </edge>
    <edge id=":1114687919_1" function="internal">
        <lane id=":1114687919_1_0" index="0" speed="8.33" length="0.13" shape="1144.20,1305.05 1144.20,1304.92"/>
    </edge>
    <edge id=":1114687920_0" function="internal">
        <lane id=":1114687920_0_0" index="0" speed="8.33" length="0.39" shape="1070.97,1577.71 1070.77,1578.04"/>
    </edge>
    <edge id=":1114687920_1" function="internal">
        <lane id=":1114687920_1_0" index="0" speed="8.33" length="0.13" shape="1068.09,1576.29 1068.15,1576.18"/>
    </edge>
    <edge id=":1114687922_0" function="internal">
        <lane id=":1114687922_0_0" index="0" speed="8.33" length="0.14" shape="930.82,1793.16 930.78,1793.29"/>
    </edge>
    <edge id=":1114687922_1" function="internal">
        <lane id=":1114687922_1_0" index="0" speed="8.33" length="0.41" shape="927.68,1792.51 927.79,1792.12"/>
    </edge>
    <edge id=":1114687923_0" function="internal">
        <lane id=":1114687923_0_0" index="0" speed="8.33" length="0.28" shape="1152.15,1233.89 1152.08,1234.16"/>
    </edge>
    <edge id=":1114687923_1" function="internal">
        <lane id=":1114687923_1_0" index="0" speed="8.33" length="0.31" shape="1148.99,1233.33 1149.07,1233.03"/>
    </edge>
    <edge id=":1114687925_0" function="internal">
        <lane id=":1114687925_0_0" index="0" speed="8.33" length="0.41" shape="1059.10,1595.90 1058.86,1596.24"/>
    </edge>
    <edge id=":1114687925_1" function="internal">
        <lane id=":1114687925_1_0" index="0" speed="8.33" length="0.14" shape="1056.34,1594.26 1056.42,1594.15"/>
    </edge>
    <edge id=":1114687927_0" function="internal">
        <lane id=":1114687927_0_0" index="0" speed="8.33" length="0.46" shape="927.86,1804.97 927.83,1805.10 927.81,1805.19 927.78,1805.28 927.73,1805.41"/>
    </edge>
    <edge id=":1114687927_1" function="internal">
        <lane id=":1114687927_1_0" index="0" speed="8.33" length="0.15" shape="924.72,1804.34 924.73,1804.30 924.74,1804.27 924.75,1804.24 924.76,1804.19"/>
    </edge>
    <edge id=":1114687928_0" function="internal">
        <lane id=":1114687928_0_0" index="0" speed="8.33" length="1.31" shape="1143.22,1255.57 1143.22,1255.18 1143.24,1254.92 1143.29,1254.66 1143.38,1254.28"/>
    </edge>
    <edge id=":1114687928_1" function="internal">
        <lane id=":1114687928_1_0" index="0" speed="8.33" length="0.44" shape="1146.47,1255.11 1146.44,1255.23 1146.42,1255.32 1146.42,1255.41 1146.42,1255.54"/>
    </edge>
    <edge id=":1114687943_0" function="internal">
        <lane id=":1114687943_0_0" index="0" speed="8.33" length="0.10" shape="1090.40,1538.46 1090.36,1538.54"/>
    </edge>
    <edge id=":1114687943_1" function="internal">
        <lane id=":1114687943_1_0" index="0" speed="8.33" length="0.10" shape="1087.46,1537.19 1087.42,1537.27"/>
    </edge>
    <edge id=":1114687944_0" function="internal">
        <lane id=":1114687944_0_0" index="0" speed="8.33" length="0.18" shape="946.77,1762.81 946.68,1762.96"/>
    </edge>
    <edge id=":1114687944_1" function="internal">
        <lane id=":1114687944_1_0" index="0" speed="8.33" length="0.29" shape="943.95,1761.28 944.11,1761.03"/>
    </edge>
    <edge id=":1114687946_0" function="internal">
        <lane id=":1114687946_0_0" index="0" speed="8.33" length="0.30" shape="1178.23,1151.49 1178.13,1151.77"/>
    </edge>
    <edge id=":1114687946_1" function="internal">
        <lane id=":1114687946_1_0" index="0" speed="8.33" length="0.30" shape="1175.10,1150.74 1175.20,1150.45"/>
    </edge>
    <edge id=":1114687947_0" function="internal">
        <lane id=":1114687947_0_0" index="0" speed="8.33" length="0.67" shape="1120.70,1466.01 1120.64,1466.20 1120.60,1466.33 1120.55,1466.46 1120.47,1466.64"/>
    </edge>
    <edge id=":1114687947_1" function="internal">
        <lane id=":1114687947_1_0" index="0" speed="8.33" length="0.22" shape="1117.54,1465.36 1117.57,1465.30 1117.58,1465.25 1117.60,1465.21 1117.61,1465.15"/>
    </edge>
    <edge id=":1114687948_0" function="internal">
        <lane id=":1114687948_0_0" index="0" speed="8.33" length="0.10" shape="1078.42,1564.02 1078.37,1564.10"/>
    </edge>
    <edge id=":1114687948_1" function="internal">
        <lane id=":1114687948_1_0" index="0" speed="8.33" length="0.10" shape="1075.56,1562.57 1075.52,1562.66"/>
    </edge>
    <edge id=":1114687950_0" function="internal">
        <lane id=":1114687950_0_0" index="0" speed="8.33" length="0.36" shape="934.33,1783.03 934.27,1783.12 934.24,1783.18 934.21,1783.25 934.18,1783.35"/>
    </edge>
    <edge id=":1114687950_1" function="internal">
        <lane id=":1114687950_1_0" index="0" speed="8.33" length="1.07" shape="931.15,1782.31 931.25,1782.02 931.34,1781.81 931.44,1781.62 931.60,1781.35"/>
    </edge>
    <edge id=":1114687951_0" function="internal">
        <lane id=":1114687951_0_0" index="0" speed="8.33" length="0.10" shape="1161.38,1200.84 1161.41,1200.75"/>
    </edge>
    <edge id=":1114687951_1" function="internal">
        <lane id=":1114687951_1_0" index="0" speed="8.33" length="0.10" shape="1158.32,1199.89 1158.35,1199.81"/>
    </edge>
    <edge id=":1114687960_0" function="internal">
        <lane id=":1114687960_0_0" index="0" speed="8.33" length="0.19" shape="1104.00,1504.28 1103.92,1504.45"/>
    </edge>
    <edge id=":1114687960_1" function="internal">
        <lane id=":1114687960_1_0" index="0" speed="8.33" length="0.30" shape="1100.95,1503.27 1101.06,1503.00"/>
    </edge>
    <edge id=":1114687964_0" function="internal">
        <lane id=":1114687964_0_0" index="0" speed="8.33" length="0.93" shape="983.52,1707.76 983.41,1708.02 983.33,1708.19 983.23,1708.35 983.08,1708.58"/>
    </edge>
    <edge id=":1114687964_1" function="internal">
        <lane id=":1114687964_1_0" index="0" speed="8.33" length="0.31" shape="980.43,1706.78 980.48,1706.70 980.51,1706.65 980.54,1706.59 980.58,1706.51"/>
    </edge>
    <edge id=":1114687965_0" function="internal">
        <lane id=":1114687965_0_0" index="0" speed="8.33" length="0.50" shape="1193.46,1099.10 1193.44,1099.25 1193.43,1099.35 1193.41,1099.46 1193.38,1099.60"/>
    </edge>
    <edge id=":1114687965_1" function="internal">
        <lane id=":1114687965_1_0" index="0" speed="8.33" length="0.17" shape="1190.25,1098.92 1190.26,1098.87 1190.27,1098.84 1190.27,1098.81 1190.28,1098.76"/>
    </edge>
    <edge id=":1114687966_0" function="internal">
        <lane id=":1114687966_0_0" index="0" speed="8.33" length="0.30" shape="1135.92,1400.64 1135.86,1400.94"/>
    </edge>
    <edge id=":1114687966_1" function="internal">
        <lane id=":1114687966_1_0" index="0" speed="8.33" length="0.29" shape="1132.72,1400.34 1132.77,1400.05"/>
    </edge>
    <edge id=":1114687969_0" function="internal">
        <lane id=":1114687969_0_0" index="0" speed="8.33" length="0.28" shape="972.68,1723.90 972.52,1724.13"/>
    </edge>
    <edge id=":1114687969_1" function="internal">
        <lane id=":1114687969_1_0" index="0" speed="8.33" length="0.31" shape="969.86,1722.36 970.03,1722.10"/>
    </edge>
    <edge id=":1114687972_0" function="internal">
        <lane id=":1114687972_0_0" index="0" speed="8.33" length="0.56" shape="1188.82,1120.60 1188.79,1120.76 1188.76,1120.87 1188.72,1120.98 1188.67,1121.14"/>
    </edge>
    <edge id=":1114687972_1" function="internal">
        <lane id=":1114687972_1_0" index="0" speed="8.33" length="0.19" shape="1185.64,1120.10 1185.66,1120.05 1185.67,1120.01 1185.68,1119.97 1185.69,1119.92"/>
    </edge>
    <edge id=":1114687983_0" function="internal">
        <lane id=":1114687983_0_0" index="0" speed="8.33" length="0.41" shape="1129.39,1434.90 1129.29,1435.30"/>
    </edge>
    <edge id=":1114687983_1" function="internal">
        <lane id=":1114687983_1_0" index="0" speed="8.33" length="0.14" shape="1126.21,1434.44 1126.24,1434.30"/>
    </edge>
    <edge id=":1114687986_0" function="internal">
        <lane id=":1114687986_0_0" index="0" speed="3.65" length="4.67" shape="872.90,1916.81 871.74,1917.66 870.85,1917.77 870.24,1917.12 869.89,1915.72"/>
    </edge>
    <edge id=":1114687988_0" function="internal">
        <lane id=":1114687988_0_0" index="0" speed="8.33" length="0.35" shape="991.92,1688.67 991.86,1688.75 991.82,1688.81 991.78,1688.88 991.74,1688.97"/>
    </edge>
    <edge id=":1114687988_1" function="internal">
        <lane id=":1114687988_1_0" index="0" speed="8.33" length="1.05" shape="988.82,1687.66 988.95,1687.38 989.05,1687.19 989.17,1687.01 989.35,1686.76"/>
    </edge>
    <edge id=":1114687990_0" function="internal">
        <lane id=":1114687990_0_0" index="0" speed="8.33" length="0.31" shape="1200.68,992.75 1200.66,993.06"/>
    </edge>
    <edge id=":1114687990_1" function="internal">
        <lane id=":1114687990_1_0" index="0" speed="8.33" length="0.28" shape="1197.47,992.88 1197.48,992.60"/>
    </edge>
    <edge id=":1114687991_0" function="internal">
        <lane id=":1114687991_0_0" index="0" speed="8.33" length="0.30" shape="1145.76,1335.99 1145.73,1336.29"/>
    </edge>
    <edge id=":1114687991_1" function="internal">
        <lane id=":1114687991_1_0" index="0" speed="8.33" length="0.10" shape="1142.55,1335.92 1142.56,1335.82"/>
    </edge>
    <edge id=":1114687994_0" function="internal">
        <lane id=":1114687994_0_0" index="0" speed="8.33" length="0.25" shape="987.51,1698.41 987.41,1698.65"/>
    </edge>
    <edge id=":1114687994_1" function="internal">
        <lane id=":1114687994_1_0" index="0" speed="8.33" length="0.31" shape="984.46,1697.39 984.59,1697.10"/>
    </edge>
    <edge id=":1114687995_0" function="internal">
        <lane id=":1114687995_0_0" index="0" speed="8.33" length="0.10" shape="1195.88,1076.88 1195.87,1076.97"/>
    </edge>
    <edge id=":1114687995_1" function="internal">
        <lane id=":1114687995_1_0" index="0" speed="8.33" length="0.10" shape="1192.69,1076.62 1192.69,1076.70"/>
    </edge>
    <edge id=":1114688004_0" function="internal">
        <lane id=":1114688004_0_0" index="0" speed="8.33" length="0.33" shape="1142.06,1367.79 1142.01,1368.12"/>
    </edge>
    <edge id=":1114688004_1" function="internal">
        <lane id=":1114688004_1_0" index="0" speed="8.33" length="0.11" shape="1138.86,1367.53 1138.88,1367.42"/>
    </edge>
    <edge id=":1114688005_0" function="internal">
        <lane id=":1114688005_0_0" index="0" speed="8.33" length="0.27" shape="890.10,1880.25 889.98,1880.48"/>
    </edge>
    <edge id=":1114688005_1" function="internal">
        <lane id=":1114688005_1_0" index="0" speed="8.33" length="0.31" shape="887.14,1879.00 887.29,1878.73"/>
    </edge>
    <edge id=":1114688007_0" function="internal">
        <lane id=":1114688007_0_0" index="0" speed="8.33" length="0.13" shape="1031.15,1631.56 1031.07,1631.66"/>
    </edge>
    <edge id=":1114688007_1" function="internal">
        <lane id=":1114688007_1_0" index="0" speed="8.33" length="0.39" shape="1028.40,1629.90 1028.63,1629.58"/>
    </edge>
    <edge id=":1114688009_0" function="internal">
        <lane id=":1114688009_0_0" index="0" speed="8.33" length="0.54" shape="924.72,1813.90 924.67,1814.05 924.63,1814.15 924.58,1814.25 924.51,1814.40"/>
    </edge>
    <edge id=":1114688009_1" function="internal">
        <lane id=":1114688009_1_0" index="0" speed="8.33" length="0.18" shape="921.64,1813.00 921.66,1812.95 921.68,1812.91 921.69,1812.88 921.71,1812.83"/>
    </edge>
    <edge id=":1114693342_0" function="internal">
        <lane id=":1114693342_0_0" index="0" speed="6.63" length="3.77" shape="565.26,52.44 565.62,51.55 566.13,50.78 566.79,50.13 567.59,49.60"/>
    </edge>
    <edge id=":1114693342_1" function="internal">
        <lane id=":1114693342_1_0" index="0" speed="4.19" length="1.26" shape="568.33,53.37 568.45,53.07 568.62,52.81 568.83,52.60 569.10,52.42"/>
    </edge>
    <edge id=":1114693343_0" function="internal">
        <lane id=":1114693343_0_0" index="0" speed="6.69" length="3.83" shape="592.32,47.11 593.38,47.47 594.07,47.86 594.60,48.46 595.17,49.43"/>
    </edge>
    <edge id=":1114693343_1" function="internal">
        <lane id=":1114693343_1_0" index="0" speed="4.23" length="1.28" shape="591.40,50.18 591.76,50.29 591.99,50.43 592.16,50.62 592.35,50.95"/>
    </edge>
    <edge id=":1114693344_0" function="internal">
        <lane id=":1114693344_0_0" index="0" speed="6.69" length="3.83" shape="585.24,82.35 584.24,82.84 583.47,83.05 582.68,83.00 581.60,82.71"/>
    </edge>
    <edge id=":1114693344_1" function="internal">
        <lane id=":1114693344_1_0" index="0" speed="5.49" length="2.44" shape="583.73,79.53 583.10,79.77 582.61,79.75 582.11,79.57 581.42,79.32"/>
    </edge>
    <edge id=":1114693346_0" function="internal">
        <lane id=":1114693346_0_0" index="0" speed="6.69" length="3.83" shape="577.69,44.19 578.69,43.69 579.45,43.49 580.25,43.54 581.33,43.82"/>
    </edge>
    <edge id=":1114693346_1" function="internal">
        <lane id=":1114693346_1_0" index="0" speed="4.23" length="1.28" shape="579.20,47.01 579.53,46.85 579.79,46.78 580.05,46.79 580.41,46.89"/>
    </edge>
    <edge id=":1114693350_0" function="internal">
        <lane id=":1114693350_0_0" index="0" speed="6.63" length="3.78" shape="562.34,67.06 561.96,66.17 561.77,65.27 561.77,64.34 561.96,63.40"/>
    </edge>
    <edge id=":1114693350_1" function="internal">
        <lane id=":1114693350_1_0" index="0" speed="5.47" length="2.43" shape="565.15,65.54 564.95,64.94 564.97,64.40 565.14,63.85 565.36,63.20"/>
    </edge>
    <edge id=":1114693353_0" function="internal">
        <lane id=":1114693353_0_0" index="0" speed="6.63" length="3.78" shape="597.68,74.09 597.32,74.98 596.81,75.76 596.15,76.41 595.35,76.94"/>
    </edge>
    <edge id=":1114693353_1" function="internal">
        <lane id=":1114693353_1_0" index="0" speed="4.19" length="1.26" shape="594.62,73.17 594.50,73.47 594.33,73.72 594.11,73.94 593.84,74.12"/>
    </edge>
    <edge id=":1114693360_0" function="internal">
        <lane id=":1114693360_0_0" index="0" speed="6.69" length="3.83" shape="570.62,79.43 569.56,79.07 568.87,78.68 568.34,78.08 567.78,77.11"/>
    </edge>
    <edge id=":1114693360_1" function="internal">
        <lane id=":1114693360_1_0" index="0" speed="4.23" length="1.28" shape="571.54,76.36 571.18,76.24 570.95,76.11 570.78,75.91 570.59,75.59"/>
    </edge>
    <edge id=":1114693362_0" function="internal">
        <lane id=":1114693362_0_0" index="0" speed="6.63" length="3.78" shape="600.60,59.48 600.98,60.36 601.17,61.27 601.17,62.20 600.98,63.14"/>
    </edge>
    <edge id=":1114693362_1" function="internal">
        <lane id=":1114693362_1_0" index="0" speed="4.19" length="1.26" shape="597.79,61.00 597.91,61.30 597.98,61.60 597.98,61.91 597.91,62.22"/>
    </edge>
    <edge id=":1114698521_0" function="internal">
        <lane id=":1114698521_0_0" index="0" speed="8.33" length="0.10" shape="573.13,230.66 573.13,230.66"/>
    </edge>
    <edge id=":1114698521_1" function="internal">
        <lane id=":1114698521_1_0" index="0" speed="8.33" length="0.10" shape="569.94,230.46 569.94,230.46"/>
    </edge>
    <edge id=":1114698522_0" function="internal">
        <lane id=":1114698522_0_0" index="0" speed="8.33" length="0.46" shape="17.43,159.11 17.33,159.19 17.26,159.26 17.20,159.33 17.11,159.44"/>
    </edge>
    <edge id=":1114698522_1" function="internal">
        <lane id=":1114698522_1_0" index="0" speed="8.33" length="1.39" shape="14.52,157.56 14.77,157.23 14.95,157.01 15.16,156.83 15.48,156.57"/>
    </edge>
    <edge id=":1114698526_0" function="internal">
        <lane id=":1114698526_0_0" index="0" speed="7.10" length="9.01" shape="557.58,60.17 559.97,59.99 561.90,59.15 563.36,57.63 564.36,55.45"/>
    </edge>
    <edge id=":1114698526_1" function="internal">
        <lane id=":1114698526_1_0" index="0" speed="3.65" length="4.67" shape="557.58,60.17 558.73,61.04 559.08,61.86 558.63,62.64 557.39,63.37"/>
    </edge>
    <edge id=":1114698526_2" function="internal">
        <lane id=":1114698526_2_0" index="0" speed="4.57" length="4.60" shape="561.99,63.30 557.39,63.37"/>
    </edge>
    <edge id=":1114698526_3" function="internal">
        <lane id=":1114698526_3_0" index="0" speed="8.33" length="7.57" shape="561.99,63.30 564.36,55.45"/>
        <lane id=":1114698526_3_1" index="1" speed="8.33" length="7.57" shape="565.42,63.01 567.42,56.37"/>
    </edge>
    <edge id=":1114698549_0" function="internal">
        <lane id=":1114698549_0_0" index="0" speed="8.33" length="0.29" shape="555.24,503.43 555.22,503.73"/>
    </edge>
    <edge id=":1114698549_1" function="internal">
        <lane id=":1114698549_1_0" index="0" speed="8.33" length="0.31" shape="552.03,503.54 552.05,503.23"/>
    </edge>
    <edge id=":1114698553_0" function="internal">
        <lane id=":1114698553_0_0" index="0" speed="8.33" length="0.31" shape="109.63,109.73 109.35,109.87"/>
    </edge>
    <edge id=":1114698553_1" function="internal">
        <lane id=":1114698553_1_0" index="0" speed="8.33" length="0.26" shape="107.97,106.98 108.21,106.86"/>
    </edge>
    <edge id=":1114698556_0" function="internal">
        <lane id=":1114698556_0_0" index="0" speed="8.33" length="0.29" shape="560.79,414.18 560.77,414.47"/>
    </edge>
    <edge id=":1114698556_1" function="internal">
        <lane id=":1114698556_1_0" index="0" speed="8.33" length="0.31" shape="557.57,414.27 557.59,413.96"/>
    </edge>
    <edge id=":1114698562_0" function="internal">
        <lane id=":1114698562_0_0" index="0" speed="8.33" length="0.17" shape="67.32,129.90 67.17,129.98"/>
    </edge>
    <edge id=":1114698562_1" function="internal">
        <lane id=":1114698562_1_0" index="0" speed="8.33" length="0.29" shape="65.68,127.14 65.94,127.01"/>
    </edge>
    <edge id=":1114698564_0" function="internal">
        <lane id=":1114698564_0_0" index="0" speed="8.33" length="0.30" shape="600.31,65.38 600.22,65.66"/>
        <lane id=":1114698564_0_1" index="1" speed="8.33" length="0.30" shape="597.24,64.45 597.15,64.74"/>
    </edge>
    <edge id=":1114698568_0" function="internal">
        <lane id=":1114698568_0_0" index="0" speed="8.33" length="0.19" shape="543.53,674.43 543.51,674.62"/>
    </edge>
    <edge id=":1114698568_1" function="internal">
        <lane id=":1114698568_1_0" index="0" speed="8.33" length="0.30" shape="540.32,674.47 540.34,674.18"/>
    </edge>
    <edge id=":1114698571_0" function="internal">
        <lane id=":1114698571_0_0" index="0" speed="8.33" length="0.26" shape="210.38,61.61 210.30,61.64 210.25,61.65 210.21,61.67 210.14,61.70"/>
    </edge>
    <edge id=":1114698571_1" function="internal">
        <lane id=":1114698571_1_0" index="0" speed="8.33" length="0.77" shape="208.80,58.80 209.01,58.70 209.15,58.64 209.30,58.59 209.52,58.53"/>
    </edge>
    <edge id=":1114698572_0" function="internal">
        <lane id=":1114698572_0_0" index="0" speed="8.33" length="0.28" shape="10.33,237.85 10.20,237.59"/>
    </edge>
    <edge id=":1114698572_1" function="internal">
        <lane id=":1114698572_1_0" index="0" speed="8.33" length="0.31" shape="13.06,236.15 13.20,236.43"/>
    </edge>
    <edge id=":1114698574_0" function="internal">
        <lane id=":1114698574_0_0" index="0" speed="8.33" length="0.31" shape="548.42,612.61 548.39,612.92"/>
    </edge>
    <edge id=":1114698574_1" function="internal">
        <lane id=":1114698574_1_0" index="0" speed="8.33" length="0.26" shape="545.20,612.67 545.22,612.40"/>
    </edge>
    <edge id=":1114698577_0" function="internal">
        <lane id=":1114698577_0_0" index="0" speed="8.33" length="0.21" shape="159.93,84.83 159.73,84.92"/>
    </edge>
    <edge id=":1114698577_1" function="internal">
        <lane id=":1114698577_1_0" index="0" speed="8.33" length="0.31" shape="158.31,82.05 158.59,81.92"/>
    </edge>
    <edge id=":1114698588_0" function="internal">
        <lane id=":1114698588_0_0" index="0" speed="3.65" length="4.67" shape="60.92,330.76 60.75,332.20 60.22,332.92 59.33,332.92 58.07,332.22"/>
    </edge>
    <edge id=":1114698590_0" function="internal">
        <lane id=":1114698590_0_0" index="0" speed="8.33" length="0.35" shape="536.19,778.02 536.18,777.67"/>
    </edge>
    <edge id=":1114698590_1" function="internal">
        <lane id=":1114698590_1_0" index="0" speed="8.33" length="0.12" shape="539.38,777.76 539.38,777.88"/>
    </edge>
    <edge id=":1114698592_0" function="internal">
        <lane id=":1114698592_0_0" index="0" speed="8.33" length="0.24" shape="277.95,47.67 277.88,47.67 277.83,47.67 277.78,47.67 277.71,47.68"/>
    </edge>
    <edge id=":1114698592_1" function="internal">
        <lane id=":1114698592_1_0" index="0" speed="8.33" length="0.72" shape="277.34,44.50 277.55,44.48 277.70,44.46 277.84,44.46 278.06,44.47"/>
    </edge>
    <edge id=":1114698593_0" function="internal">
        <lane id=":1114698593_0_0" index="0" speed="8.33" length="1.32" shape="-0.95,206.37 -1.07,205.99 -1.13,205.73 -1.16,205.46 -1.17,205.07"/>
    </edge>
    <edge id=":1114698593_1" function="internal">
        <lane id=":1114698593_1_0" index="0" speed="8.33" length="0.44" shape="2.03,204.98 2.03,205.11 2.04,205.20 2.06,205.29 2.10,205.41"/>
    </edge>
    <edge id=":1114698594_0" function="internal">
        <lane id=":1114698594_0_0" index="0" speed="3.65" length="4.67" shape="545.35,802.61 545.15,804.04 544.60,804.75 543.71,804.74 542.47,804.00"/>
    </edge>
    <edge id=":1114698595_0" function="internal">
        <lane id=":1114698595_0_0" index="0" speed="8.33" length="0.31" shape="355.94,51.83 355.63,51.81"/>
    </edge>
    <edge id=":1114698595_1" function="internal">
        <lane id=":1114698595_1_0" index="0" speed="8.33" length="0.26" shape="355.83,48.62 356.09,48.64"/>
    </edge>
    <edge id=":1114698597_0" function="internal">
        <lane id=":1114698597_0_0" index="0" speed="8.33" length="0.26" shape="540.17,749.06 540.16,749.31"/>
    </edge>
    <edge id=":1114698597_1" function="internal">
        <lane id=":1114698597_1_0" index="0" speed="8.33" length="0.31" shape="536.97,749.23 536.98,748.91"/>
    </edge>
    <edge id=":1114698600_0" function="internal">
        <lane id=":1114698600_0_0" index="0" speed="8.33" length="0.25" shape="248.23,51.10 248.16,51.11 248.11,51.12 248.06,51.13 247.99,51.15"/>
    </edge>
    <edge id=":1114698600_1" function="internal">
        <lane id=":1114698600_1_0" index="0" speed="8.33" length="0.75" shape="247.13,48.07 247.34,48.01 247.49,47.97 247.64,47.95 247.86,47.92"/>
    </edge>
    <edge id=":1114698602_0" function="internal">
        <lane id=":1114698602_0_0" index="0" speed="8.33" length="0.79" shape="6.72,230.72 6.62,230.51 6.55,230.36 6.50,230.21 6.43,229.98"/>
    </edge>
    <edge id=":1114698602_1" function="internal">
        <lane id=":1114698602_1_0" index="0" speed="8.33" length="0.26" shape="9.48,229.03 9.50,229.10 9.52,229.15 9.54,229.20 9.58,229.27"/>
    </edge>
    <edge id=":1114698603_0" function="internal">
        <lane id=":1114698603_0_0" index="0" speed="8.33" length="1.95" shape="537.26,793.21 537.02,792.68 536.88,792.31 536.82,791.91 536.79,791.34"/>
    </edge>
    <edge id=":1114698603_1" function="internal">
        <lane id=":1114698603_1_0" index="0" speed="8.33" length="0.65" shape="539.98,791.19 540.00,791.39 540.02,791.52 540.06,791.64 540.14,791.82"/>
    </edge>
    <edge id=":1114698608_0" function="internal">
        <lane id=":1114698608_0_0" index="0" speed="8.33" length="0.21" shape="306.04,48.63 305.83,48.62"/>
    </edge>
    <edge id=":1114698608_1" function="internal">
        <lane id=":1114698608_1_0" index="0" speed="8.33" length="0.30" shape="305.94,45.42 306.24,45.44"/>
    </edge>
    <edge id=":1114698613_0" function="internal">
        <lane id=":1114698613_0_0" index="0" speed="8.33" length="0.31" shape="578.98,137.72 578.96,138.03"/>
    </edge>
    <edge id=":1114698613_1" function="internal">
        <lane id=":1114698613_1_0" index="0" speed="8.33" length="0.28" shape="575.77,137.83 575.78,137.55"/>
    </edge>
    <edge id=":1114698615_0" function="internal">
        <lane id=":1114698615_0_0" index="0" speed="8.33" length="0.46" shape="8.25,171.66 8.17,171.77 8.12,171.85 8.09,171.94 8.04,172.07"/>
    </edge>
    <edge id=":1114698615_1" function="internal">
        <lane id=":1114698615_1_0" index="0" speed="8.33" length="1.38" shape="5.02,171.00 5.16,170.61 5.28,170.36 5.42,170.11 5.66,169.78"/>
    </edge>
    <edge id=":1114698622_0" function="internal">
        <lane id=":1114698622_0_0" index="0" speed="8.33" length="0.30" shape="511.56,60.61 511.25,60.59"/>
    </edge>
    <edge id=":1114698622_1" function="internal">
        <lane id=":1114698622_1_0" index="0" speed="8.33" length="0.30" shape="511.45,57.40 511.75,57.42"/>
    </edge>
    <edge id=":1114698624_0" function="internal">
        <lane id=":1114698624_0_0" index="0" speed="8.33" length="0.13" shape="1262.26,102.86 1262.25,103.02"/>
        <lane id=":1114698624_0_1" index="1" speed="8.33" length="0.13" shape="1259.07,102.72 1259.06,102.77"/>
    </edge>
    <edge id=":1114698627_0" function="internal">
        <lane id=":1114698627_0_0" index="0" speed="4.55" length="4.60" shape="581.50,82.68 581.66,87.28"/>
    </edge>
    <edge id=":1114698627_1" function="internal">
        <lane id=":1114698627_1_0" index="0" speed="8.33" length="7.52" shape="581.50,82.68 573.71,80.35"/>
        <lane id=":1114698627_1_1" index="1" speed="8.33" length="7.52" shape="581.23,79.26 574.62,77.28"/>
    </edge>
    <edge id=":1114698627_3" function="internal">
        <lane id=":1114698627_3_0" index="0" speed="7.12" length="9.01" shape="578.46,87.11 578.27,84.72 577.41,82.79 575.89,81.34 573.71,80.35"/>
    </edge>
    <edge id=":1114698627_4" function="internal">