<edges>
	<edge id="96179936_1114708788_1114708789_1114708788" from="1114708788" to="1114708783" numLanes="1" speed="8.33" />
	<edge id="96179936_1114708788_1114708789_1114708783" from="1114708783" to="1114708791" numLanes="1" speed="8.33" />
	<edge id="96179936_1114708788_1114708789_1114708791" from="1114708791" to="1114708789" numLanes="1" speed="8.33" />
	<edge id="96176789_1713449228_1114698594_1713449228" from="1713449228" to="1114698574" numLanes="1" speed="8.33" />
	<edge id="96176789_1713449228_1114698594_1114698574" from="1114698574" to="1114698568" numLanes="1" speed="8.33" />
	<edge id="96176789_1713449228_1114698594_1114698568" from="1114698568" to="1114698597" numLanes="1" speed="8.33" />
	<edge id="96176789_1713449228_1114698594_1114698597" from="1114698597" to="1114698590" numLanes="1" speed="8.33" />
	<edge id="96176789_1713449228_1114698594_1114698590" from="1114698590" to="1114698603" numLanes="1" speed="8.33" />
	<edge id="96176789_1713449228_1114698594_1114698603" from="1114698603" to="1114698594" numLanes="1" speed="8.33" />
	<edge id="301163309_1114706629_1114706536_1114706629" from="1114706629" to="1114706553" numLanes="2" speed="8.33" />
	<edge id="301163309_1114706629_1114706536_1114706553" from="1114706553" to="1114706573" numLanes="2" speed="8.33" />
	<edge id="301163309_1114706629_1114706536_1114706573" from="1114706573" to="1114706523" numLanes="2" speed="8.33" />
	<edge id="301163309_1114706629_1114706536_1114706523" from="1114706523" to="1114706602" numLanes="2" speed="8.33" />
	<edge id="301163309_1114706629_1114706536_1114706602" from="1114706602" to="1114706620" numLanes="2" speed="8.33" />
	<edge id="301163309_1114706629_1114706536_1114706620" from="1114706620" to="1114706574" numLanes="2" speed="8.33" />
	<edge id="301163309_1114706629_1114706536_1114706574" from="1114706574" to="1114706589" numLanes="2" speed="8.33" />
	<edge id="301163309_1114706629_1114706536_1114706589" from="1114706589" to="1114706542" numLanes="2" speed="8.33" />
	<edge id="301163309_1114706629_1114706536_1114706542" from="1114706542" to="1114706555" numLanes="2" speed="8.33" />
	<edge id="301163309_1114706629_1114706536_1114706555" from="1114706555" to="1114706658" numLanes="2" speed="8.33" />
	<edge id="301163309_1114706629_1114706536_1114706658" from="1114706658" to="1114706526" numLanes="2" speed="8.33" />
	<edge id="301163309_1114706629_1114706536_1114706526" from="1114706526" to="1114706623" numLanes="2" speed="8.33" />
	<edge id="301163309_1114706629_1114706536_1114706623" from="1114706623" to="1114706570" numLanes="2" speed="8.33" />
	<edge id="301163309_1114706629_1114706536_1114706570" from="1114706570" to="1114706515" numLanes="2" speed="8.33" />
	<edge id="301163309_1114706629_1114706536_1114706515" from="1114706515" to="1114706536" numLanes="2" speed="8.33" />
	<edge id="96179132_1114708786_1114708792_1114708786" from="1114708786" to="1114708779" numLanes="1" speed="8.33" />
	<edge id="96179132_1114708786_1114708792_1114708779" from="1114708779" to="1114708780" numLanes="1" speed="8.33" />
	<edge id="96179132_1114708786_1114708792_1114708780" from="1114708780" to="1114708793" numLanes="1" speed="8.33" />
	<edge id="96179132_1114708786_1114708792_1114708793" from="1114708793" to="1114708778" numLanes="1" speed="8.33" />
	<edge id="96179132_1114708786_1114708792_1114708778" from="1114708778" to="1114708792" numLanes="1" speed="8.33" />
	<edge id="96170461_1114614439_1114614410_1114614439" from="1114614439" to="1114614422" numLanes="1" speed="8.33" />
	<edge id="96170461_1114614439_1114614410_1114614422" from="1114614422" to="1114614410" numLanes="1" speed="8.33" />
	<edge id="300954531_1114708792_1114708788_1114708792" from="1114708792" to="1114687990" numLanes="1" speed="8.33" />
	<edge id="300954531_1114708792_1114708788_1114687990" from="1114687990" to="1114708788" numLanes="1" speed="8.33" />
	<edge id="96176789_1713449228_1114698627_1713449228" from="1713449228" to="1114698549" numLanes="1" speed="8.33" />
	<edge id="96176789_1713449228_1114698627_1114698549" from="1114698549" to="1114698556" numLanes="1" speed="8.33" />
	<edge id="96176789_1713449228_1114698627_1114698556" from="1114698556" to="1114698638" numLanes="1" speed="8.33" />
	<edge id="96176789_1713449228_1114698627_1114698638" from="1114698638" to="1114698521" numLanes="1" speed="8.33" />
	<edge id="96176789_1713449228_1114698627_1114698521" from="1114698521" to="1114698613" numLanes="1" speed="8.33" />
	<edge id="96176789_1713449228_1114698627_1114698613" from="1114698613" to="1114698627" numLanes="1" speed="8.33" />
	<edge id="300954533_1114687986_1114708792_1114687986" from="1114687986" to="1114687903" numLanes="1" speed="8.33" />
	<edge id="300954533_1114687986_1114708792_1114687903" from="1114687903" to="1114688005" numLanes="1" speed="8.33" />
	<edge id="300954533_1114687986_1114708792_1114688005" from="1114688005" to="1114687916" numLanes="1" speed="8.33" />
	<edge id="300954533_1114687986_1114708792_1114687916" from="1114687916" to="1114688009" numLanes="1" speed="8.33" />
	<edge id="300954533_1114687986_1114708792_1114688009" from="1114688009" to="1114687927" numLanes="1" speed="8.33" />
	<edge id="300954533_1114687986_1114708792_1114687927" from="1114687927" to="1114687922" numLanes="1" speed="8.33" />
	<edge id="300954533_1114687986_1114708792_1114687922" from="1114687922" to="1114687950" numLanes="1" speed="8.33" />
	<edge id="300954533_1114687986_1114708792_1114687950" from="1114687950" to="3051507485" numLanes="1" speed="8.33" />
	<edge id="300954533_1114687986_1114708792_3051507485" from="3051507485" to="1114687944" numLanes="1" speed="8.33" />
	<edge id="300954533_1114687986_1114708792_1114687944" from="1114687944" to="1114687969" numLanes="1" speed="8.33" />
	<edge id="300954533_1114687986_1114708792_1114687969" from="1114687969" to="1114687964" numLanes="1" speed="8.33" />
	<edge id="300954533_1114687986_1114708792_1114687964" from="1114687964" to="1114687994" numLanes="1" speed="8.33" />
	<edge id="300954533_1114687986_1114708792_1114687994" from="1114687994" to="1114687988" numLanes="1" speed="8.33" />
	<edge id="300954533_1114687986_1114708792_1114687988" from="1114687988" to="3050001480" numLanes="1" speed="8.33" />
	<edge id="300954533_1114687986_1114708792_3050001480" from="3050001480" to="1114688007" numLanes="1" speed="8.33" />
	<edge id="300954533_1114687986_1114708792_1114688007" from="1114688007" to="1114687925" numLanes="1" speed="8.33" />
	<edge id="300954533_1114687986_1114708792_1114687925" from="1114687925" to="1114687920" numLanes="1" speed="8.33" />
	<edge id="300954533_1114687986_1114708792_1114687920" from="1114687920" to="1114687948" numLanes="1" speed="8.33" />
	<edge id="300954533_1114687986_1114708792_1114687948" from="1114687948" to="1114687943" numLanes="1" speed="8.33" />
	<edge id="300954533_1114687986_1114708792_1114687943" from="1114687943" to="1114687960" numLanes="1" speed="8.33" />
	<edge id="300954533_1114687986_1114708792_1114687960" from="1114687960" to="1114687947" numLanes="1" speed="8.33" />
	<edge id="300954533_1114687986_1114708792_1114687947" from="1114687947" to="1114687983" numLanes="1" speed="8.33" />
	<edge id="300954533_1114687986_1114708792_1114687983" from="1114687983" to="1114687966" numLanes="1" speed="8.33" />
	<edge id="300954533_1114687986_1114708792_1114687966" from="1114687966" to="1114688004" numLanes="1" speed="8.33" />
	<edge id="300954533_1114687986_1114708792_1114688004" from="1114688004" to="1114687991" numLanes="1" speed="8.33" />
	<edge id="300954533_1114687986_1114708792_1114687991" from="1114687991" to="1114687919" numLanes="1" speed="8.33" />
	<edge id="300954533_1114687986_1114708792_1114687919" from="1114687919" to="1114687902" numLanes="1" speed="8.33" />
	<edge id="300954533_1114687986_1114708792_1114687902" from="1114687902" to="1114687928" numLanes="1" speed="8.33" />
	<edge id="300954533_1114687986_1114708792_1114687928" from="1114687928" to="1114687923" numLanes="1" speed="8.33" />
	<edge id="300954533_1114687986_1114708792_1114687923" from="1114687923" to="1114687951" numLanes="1" speed="8.33" />
	<edge id="300954533_1114687986_1114708792_1114687951" from="1114687951" to="1114687946" numLanes="1" speed="8.33" />
	<edge id="300954533_1114687986_1114708792_1114687946" from="1114687946" to="1114687972" numLanes="1" speed="8.33" />
	<edge id="300954533_1114687986_1114708792_1114687972" from="1114687972" to="1114687965" numLanes="1" speed="8.33" />
	<edge id="300954533_1114687986_1114708792_1114687965" from="1114687965" to="1114687995" numLanes="1" speed="8.33" />
	<edge id="300954533_1114687986_1114708792_1114687995" from="1114687995" to="1114708792" numLanes="1" speed="8.33" />
	<edge id="300954533_1114708792_1114687986_1114708792" from="1114708792" to="1114687995" numLanes="1" speed="8.33" />
	<edge id="300954533_1114708792_1114687986_1114687995" from="1114687995" to="1114687965" numLanes="1" speed="8.33" />
	<edge id="300954533_1114708792_1114687986_1114687965" from="1114687965" to="1114687972" numLanes="1" speed="8.33" />
	<edge id="300954533_1114708792_1114687986_1114687972" from="1114687972" to="1114687946" numLanes="1" speed="8.33" />
	<edge id="300954533_1114708792_1114687986_1114687946" from="1114687946" to="1114687951" numLanes="1" speed="8.33" />
	<edge id="300954533_1114708792_1114687986_1114687951" from="1114687951" to="1114687923" numLanes="1" speed="8.33" />
	<edge id="300954533_1114708792_1114687986_1114687923" from="1114687923" to="1114687928" numLanes="1" speed="8.33" />
	<edge id="300954533_1114708792_1114687986_1114687928" from="1114687928" to="1114687902" numLanes="1" speed="8.33" />
	<edge id="300954533_1114708792_1114687986_1114687902" from="1114687902" to="1114687919" numLanes="1" speed="8.33" />
	<edge id="300954533_1114708792_1114687986_1114687919" from="1114687919" to="1114687991" numLanes="1" speed="8.33" />
	<edge id="300954533_1114708792_1114687986_1114687991" from="1114687991" to="1114688004" numLanes="1" speed="8.33" />
	<edge id="300954533_1114708792_1114687986_1114688004" from="1114688004" to="1114687966" numLanes="1" speed="8.33" />
	<edge id="300954533_1114708792_1114687986_1114687966" from="1114687966" to="1114687983" numLanes="1" speed="8.33" />
	<edge id="300954533_1114708792_1114687986_1114687983" from="1114687983" to="1114687947" numLanes="1" speed="8.33" />
	<edge id="300954533_1114708792_1114687986_1114687947" from="1114687947" to="1114687960" numLanes="1" speed="8.33" />
	<edge id="300954533_1114708792_1114687986_1114687960" from="1114687960" to="1114687943" numLanes="1" speed="8.33" />
	<edge id="300954533_1114708792_1114687986_1114687943" from="1114687943" to="1114687948" numLanes="1" speed="8.33" />
	<edge id="300954533_1114708792_1114687986_1114687948" from="1114687948" to="1114687920" numLanes="1" speed="8.33" />
	<edge id="300954533_1114708792_1114687986_1114687920" from="1114687920" to="1114687925" numLanes="1" speed="8.33" />
	<edge id="300954533_1114708792_1114687986_1114687925" from="1114687925" to="1114688007" numLanes="1" speed="8.33" />
	<edge id="300954533_1114708792_1114687986_1114688007" from="1114688007" to="3050001480" numLanes="1" speed="8.33" />
	<edge id="300954533_1114708792_1114687986_3050001480" from="3050001480" to="1114687988" numLanes="1" speed="8.33" />
	<edge id="300954533_1114708792_1114687986_1114687988" from="1114687988" to="1114687994" numLanes="1" speed="8.33" />
	<edge id="300954533_1114708792_1114687986_1114687994" from="1114687994" to="1114687964" numLanes="1" speed="8.33" />
	<edge id="300954533_1114708792_1114687986_1114687964" from="1114687964" to="1114687969" numLanes="1" speed="8.33" />
	<edge id="300954533_1114708792_1114687986_1114687969" from="1114687969" to="1114687944" numLanes="1" speed="8.33" />
	<edge id="300954533_1114708792_1114687986_1114687944" from="1114687944" to="3051507485" numLanes="1" speed="8.33" />
	<edge id="300954533_1114708792_1114687986_3051507485" from="3051507485" to="1114687950" numLanes="1" speed="8.33" />
	<edge id="300954533_1114708792_1114687986_1114687950" from="1114687950" to="1114687922" numLanes="1" speed="8.33" />
	<edge id="300954533_1114708792_1114687986_1114687922" from="1114687922" to="1114687927" numLanes="1" speed="8.33" />
	<edge id="300954533_1114708792_1114687986_1114687927" from="1114687927" to="1114688009" numLanes="1" speed="8.33" />
	<edge id="300954533_1114708792_1114687986_1114688009" from="1114688009" to="1114687916" numLanes="1" speed="8.33" />
	<edge id="300954533_1114708792_1114687986_1114687916" from="1114687916" to="1114688005" numLanes="1" speed="8.33" />
	<edge id="300954533_1114708792_1114687986_1114688005" from="1114688005" to="1114687903" numLanes="1" speed="8.33" />
	<edge id="300954533_1114708792_1114687986_1114687903" from="1114687903" to="1114687986" numLanes="1" speed="8.33" />
	<edge id="96179135_1114706612_1114706527_1114706612" from="1114706612" to="1114706641" numLanes="2" speed="8.33" />
	<edge id="96179135_1114706612_1114706527_1114706641" from="1114706641" to="1114706661" numLanes="2" speed="8.33" />
	<edge id="96179135_1114706612_1114706527_1114706661" from="1114706661" to="1114706638" numLanes="2" speed="8.33" />
	<edge id="96179135_1114706612_1114706527_1114706638" from="1114706638" to="1114706646" numLanes="2" speed="8.33" />
	<edge id="96179135_1114706612_1114706527_1114706646" from="1114706646" to="1114706614" numLanes="2" speed="8.33" />
	<edge id="96179135_1114706612_1114706527_1114706614" from="1114706614" to="1114706545" numLanes="2" speed="8.33" />
	<edge id="96179135_1114706612_1114706527_1114706545" from="1114706545" to="1114706642" numLanes="2" speed="8.33" />
	<edge id="96179135_1114706612_1114706527_1114706642" from="1114706642" to="1114706662" numLanes="2" speed="8.33" />
	<edge id="96179135_1114706612_1114706527_1114706662" from="1114706662" to="1114706622" numLanes="2" speed="8.33" />
	<edge id="96179135_1114706612_1114706527_1114706622" from="1114706622" to="1114706625" numLanes="2" speed="8.33" />
	<edge id="96179135_1114706612_1114706527_1114706625" from="1114706625" to="1114706592" numLanes="2" speed="8.33" />
	<edge id="96179135_1114706612_1114706527_1114706592" from="1114706592" to="1114706607" numLanes="2" speed="8.33" />
	<edge id="96179135_1114706612_1114706527_1114706607" from="1114706607" to="1114706563" numLanes="2" speed="8.33" />
	<edge id="96179135_1114706612_1114706527_1114706563" from="1114706563" to="1114706576" numLanes="2" speed="8.33" />
	<edge id="96179135_1114706612_1114706527_1114706576" from="1114706576" to="1114698624" numLanes="2" speed="8.33" />
	<edge id="96179135_1114706612_1114706527_1114698624" from="1114698624" to="1114706591" numLanes="2" speed="8.33" />
	<edge id="96179135_1114706612_1114706527_1114706591" from="1114706591" to="1114706605" numLanes="2" speed="8.33" />
	<edge id="96179135_1114706612_1114706527_1114706605" from="1114706605" to="1114706557" numLanes="2" speed="8.33" />
	<edge id="96179135_1114706612_1114706527_1114706557" from="1114706557" to="1114706575" numLanes="2" speed="8.33" />
	<edge id="96179135_1114706612_1114706527_1114706575" from="1114706575" to="1114706527" numLanes="2" speed="8.33" />
	<edge id="300954532_1114706519_1713449148_1114706519" from="1114706519" to="1114706648" numLanes="1" speed="8.33" />
	<edge id="300954532_1114706519_1713449148_1114706648" from="1114706648" to="1713449148" numLanes="1" speed="8.33" />
	<edge id="159252278_1713449228_1713449148_1713449228" from="1713449228" to="1713449148" numLanes="1" speed="8.33" />
	<edge id="96176787_1114698526_1114698588_1114698526" from="1114698526" to="1114698622" numLanes="1" speed="8.33" />
	<edge id="96176787_1114698526_1114698588_1114698622" from="1114698622" to="1114698634" numLanes="1" speed="8.33" />
	<edge id="96176787_1114698526_1114698588_1114698634" from="1114698634" to="1114698595" numLanes="1" speed="8.33" />
	<edge id="96176787_1114698526_1114698588_1114698595" from="1114698595" to="1114698608" numLanes="1" speed="8.33" />
	<edge id="96176787_1114698526_1114698588_1114698608" from="1114698608" to="1114698592" numLanes="1" speed="8.33" />
	<edge id="96176787_1114698526_1114698588_1114698592" from="1114698592" to="1114698600" numLanes="1" speed="8.33" />
	<edge id="96176787_1114698526_1114698588_1114698600" from="1114698600" to="1114698571" numLanes="1" speed="8.33" />
	<edge id="96176787_1114698526_1114698588_1114698571" from="1114698571" to="1114698577" numLanes="1" speed="8.33" />
	<edge id="96176787_1114698526_1114698588_1114698577" from="1114698577" to="1114698553" numLanes="1" speed="8.33" />
	<edge id="96176787_1114698526_1114698588_1114698553" from="1114698553" to="1114698562" numLanes="1" speed="8.33" />
	<edge id="96176787_1114698526_1114698588_1114698562" from="1114698562" to="1114698639" numLanes="1" speed="8.33" />
	<edge id="96176787_1114698526_1114698588_1114698639" from="1114698639" to="1114698522" numLanes="1" speed="8.33" />
	<edge id="96176787_1114698526_1114698588_1114698522" from="1114698522" to="1114698615" numLanes="1" speed="8.33" />
	<edge id="96176787_1114698526_1114698588_1114698615" from="1114698615" to="1114698629" numLanes="1" speed="8.33" />
	<edge id="96176787_1114698526_1114698588_1114698629" from="1114698629" to="1114698593" numLanes="1" speed="8.33" />
	<edge id="96176787_1114698526_1114698588_1114698593" from="1114698593" to="1114698602" numLanes="1" speed="8.33" />
	<edge id="96176787_1114698526_1114698588_1114698602" from="1114698602" to="1114698572" numLanes="1" speed="8.33" />
	<edge id="96176787_1114698526_1114698588_1114698572" from="1114698572" to="7184885457" numLanes="1" speed="8.33" />
	<edge id="96176787_1114698526_1114698588_7184885457" from="7184885457" to="1114698588" numLanes="1" speed="8.33" />
	<edge id="300954532_1713449148_1114706519_1713449148" from="1713449148" to="1114706648" numLanes="1" speed="8.33" />
	<edge id="300954532_1713449148_1114706519_1114706648" from="1114706648" to="1114706519" numLanes="1" speed="8.33" />
	<edge id="96179125_1114614439_1114706587_1114614439" from="1114614439" to="1114706609" numLanes="1" speed="8.33" />
	<edge id="96179125_1114614439_1114706587_1114706609" from="1114706609" to="1114706587" numLanes="1" speed="8.33" />
	<edge id="96179130_1114706538_1114706587_1114706538" from="1114706538" to="1114706551" numLanes="1" speed="8.33" />
	<edge id="96179130_1114706538_1114706587_1114706551" from="1114706551" to="1114706596" numLanes="1" speed="8.33" />
	<edge id="96179130_1114706538_1114706587_1114706596" from="1114706596" to="1114706587" numLanes="1" speed="8.33" />
	<edge id="300954531_1114708788_1114614443_1114708788" from="1114708788" to="1114614417" numLanes="1" speed="8.33" />
	<edge id="300954531_1114708788_1114614443_1114614417" from="1114614417" to="1114614431" numLanes="1" speed="8.33" />
	<edge id="300954531_1114708788_1114614443_1114614431" from="1114614431" to="1114614443" numLanes="1" speed="8.33" />
	<edge id="96179132_1114708792_1114708786_1114708792" from="1114708792" to="1114708778" numLanes="1" speed="8.33" />
	<edge id="96179132_1114708792_1114708786_1114708778" from="1114708778" to="1114708793" numLanes="1" speed="8.33" />
	<edge id="96179132_1114708792_1114708786_1114708793" from="1114708793" to="1114708780" numLanes="1" speed="8.33" />
	<edge id="96179132_1114708792_1114708786_1114708780" from="1114708780" to="1114708779" numLanes="1" speed="8.33" />
	<edge id="96179132_1114708792_1114708786_1114708779" from="1114708779" to="1114708786" numLanes="1" speed="8.33" />
	<edge id="300954532_1114706519_1114706624_1114706519" from="1114706519" to="1114706561" numLanes="1" speed="8.33" />
	<edge id="300954532_1114706519_1114706624_1114706561" from="1114706561" to="1114706663" numLanes="1" speed="8.33" />
	<edge id="300954532_1114706519_1114706624_1114706663" from="1114706663" to="1114706624" numLanes="1" speed="8.33" />
	<edge id="300954531_1114614443_1114708788_1114614443" from="1114614443" to="1114614431" numLanes="1" speed="8.33" />
	<edge id="300954531_1114614443_1114708788_1114614431" from="1114614431" to="1114614417" numLanes="1" speed="8.33" />
	<edge id="300954531_1114614443_1114708788_1114614417" from="1114614417" to="1114708788" numLanes="1" speed="8.33" />
	<edge id="96179130_1114706519_1114706538_1114706519" from="1114706519" to="1114706571" numLanes="1" speed="8.33" />
	<edge id="96179130_1114706519_1114706538_1114706571" from="1114706571" to="1114706538" numLanes="1" speed="8.33" />
	<edge id="300954532_1114706629_1114706624_1114706629" from="1114706629" to="1114706597" numLanes="1" speed="8.33" />
	<edge id="300954532_1114706629_1114706624_1114706597" from="1114706597" to="1114706624" numLanes="1" speed="8.33" />
	<edge id="96175189_1114698526_1114693344_1114698526" from="1114698526" to="1114693342" numLanes="2" speed="8.33" />
	<edge id="96175189_1114698526_1114693344_1114693342" from="1114693342" to="1114693346" numLanes="2" speed="8.33" />
	<edge id="96175189_1114698526_1114693344_1114693346" from="1114693346" to="1114693343" numLanes="2" speed="8.33" />
	<edge id="96175189_1114698526_1114693344_1114693343" from="1114693343" to="1114693362" numLanes="2" speed="8.33" />
	<edge id="96175189_1114698526_1114693344_1114693362" from="1114693362" to="1114698564" numLanes="2" speed="8.33" />
	<edge id="96175189_1114698526_1114693344_1114698564" from="1114698564" to="1114693353" numLanes="2" speed="8.33" />
	<edge id="96175189_1114698526_1114693344_1114693353" from="1114693353" to="1114693344" numLanes="2" speed="8.33" />
	<edge id="96176789_1114698627_1713449228_1114698627" from="1114698627" to="1114698613" numLanes="1" speed="8.33" />
	<edge id="96176789_1114698627_1713449228_1114698613" from="1114698613" to="1114698521" numLanes="1" speed="8.33" />
	<edge id="96176789_1114698627_1713449228_1114698521" from="1114698521" to="1114698638" numLanes="1" speed="8.33" />
	<edge id="96176789_1114698627_1713449228_1114698638" from="1114698638" to="1114698556" numLanes="1" speed="8.33" />
	<edge id="96176789_1114698627_1713449228_1114698556" from="1114698556" to="1114698549" numLanes="1" speed="8.33" />
	<edge id="96176789_1114698627_1713449228_1114698549" from="1114698549" to="1713449228" numLanes="1" speed="8.33" />
	<edge id="96175189_1114693344_1114698627_1114693344" from="1114693344" to="1114698627" numLanes="2" speed="8.33" />
	<edge id="300954532_1114708789_1713449148_1114708789" from="1114708789" to="1114708790" numLanes="1" speed="8.33" />
	<edge id="300954532_1114708789_1713449148_1114708790" from="1114708790" to="1114706572" numLanes="1" speed="8.33" />
	<edge id="300954532_1114708789_1713449148_1114706572" from="1114706572" to="1114706521" numLanes="1" speed="8.33" />
	<edge id="300954532_1114708789_1713449148_1114706521" from="1114706521" to="1114706540" numLanes="1" speed="8.33" />
	<edge id="300954532_1114708789_1713449148_1114706540" from="1114706540" to="1114706640" numLanes="1" speed="8.33" />
	<edge id="300954532_1114708789_1713449148_1114706640" from="1114706640" to="1713449148" numLanes="1" speed="8.33" />
	<edge id="96175189_1114698627_1114698526_1114698627" from="1114698627" to="1114693360" numLanes="2" speed="8.33" />
	<edge id="96175189_1114698627_1114698526_1114693360" from="1114693360" to="1114693350" numLanes="2" speed="8.33" />
	<edge id="96175189_1114698627_1114698526_1114693350" from="1114693350" to="1114698526" numLanes="2" speed="8.33" />
	<edge id="300954532_1114708789_1114708786_1114708789" from="1114708789" to="1114708781" numLanes="1" speed="8.33" />
	<edge id="300954532_1114708789_1114708786_1114708781" from="1114708781" to="1114708786" numLanes="1" speed="8.33" />
	<edge id="96179125_1114706587_1114614439_1114706587" from="1114706587" to="1114706609" numLanes="1" speed="8.33" />
	<edge id="96179125_1114706587_1114614439_1114706609" from="1114706609" to="1114614439" numLanes="1" speed="8.33" />
	<edge id="96179125_1114706527_1114706612_1114706527" from="1114706527" to="1114706612" numLanes="1" speed="8.33" />
	<edge id="96179130_1114706587_1114706538_1114706587" from="1114706587" to="1114706596" numLanes="1" speed="8.33" />
	<edge id="96179130_1114706587_1114706538_1114706596" from="1114706596" to="1114706551" numLanes="1" speed="8.33" />
	<edge id="96179130_1114706587_1114706538_1114706551" from="1114706551" to="1114706538" numLanes="1" speed="8.33" />
	<edge id="96179130_1114706538_1114706519_1114706538" from="1114706538" to="1114706571" numLanes="1" speed="8.33" />
	<edge id="96179130_1114706538_1114706519_1114706571" from="1114706571" to="1114706519" numLanes="1" speed="8.33" />
	<edge id="159252278_1713449148_1713449228_1713449148" from="1713449148" to="1713449228" numLanes="1" speed="8.33" />
	<edge id="96179936_1114708789_1114708788_1114708789" from="1114708789" to="1114708791" numLanes="1" speed="8.33" />
	<edge id="96179936_1114708789_1114708788_1114708791" from="1114708791" to="1114708783" numLanes="1" speed="8.33" />
	<edge id="96179936_1114708789_1114708788_1114708783" from="1114708783" to="1114708788" numLanes="1" speed="8.33" />
	<edge id="300954532_1114706624_1114706519_1114706624" from="1114706624" to="1114706663" numLanes="1" speed="8.33" />
	<edge id="300954532_1114706624_1114706519_1114706663" from="1114706663" to="1114706561" numLanes="1" speed="8.33" />
	<edge id="300954532_1114706624_1114706519_1114706561" from="1114706561" to="1114706519" numLanes="1" speed="8.33" />
	<edge id="96176787_1114698588_1114698526_1114698588" from="1114698588" to="7184885457" numLanes="1" speed="8.33" />
	<edge id="96176787_1114698588_1114698526_7184885457" from="7184885457" to="1114698572" numLanes="1" speed="8.33" />
	<edge id="96176787_1114698588_1114698526_1114698572" from="1114698572" to="1114698602" numLanes="1" speed="8.33" />
	<edge id="96176787_1114698588_1114698526_1114698602" from="1114698602" to="1114698593" numLanes="1" speed="8.33" />
	<edge id="96176787_1114698588_1114698526_1114698593" from="1114698593" to="1114698629" numLanes="1" speed="8.33" />
	<edge id="96176787_1114698588_1114698526_1114698629" from="1114698629" to="1114698615" numLanes="1" speed="8.33" />
	<edge id="96176787_1114698588_1114698526_1114698615" from="1114698615" to="1114698522" numLanes="1" speed="8.33" />
	<edge id="96176787_1114698588_1114698526_1114698522" from="1114698522" to="1114698639" numLanes="1" speed="8.33" />
	<edge id="96176787_1114698588_1114698526_1114698639" from="1114698639" to="1114698562" numLanes="1" speed="8.33" />
	<edge id="96176787_1114698588_1114698526_1114698562" from="1114698562" to="1114698553" numLanes="1" speed="8.33" />
	<edge id="96176787_1114698588_1114698526_1114698553" from="1114698553" to="1114698577" numLanes="1" speed="8.33" />
	<edge id="96176787_1114698588_1114698526_1114698577" from="1114698577" to="1114698571" numLanes="1" speed="8.33" />
	<edge id="96176787_1114698588_1114698526_1114698571" from="1114698571" to="1114698600" numLanes="1" speed="8.33" />
	<edge id="96176787_1114698588_1114698526_1114698600" from="1114698600" to="1114698592" numLanes="1" speed="8.33" />
	<edge id="96176787_1114698588_1114698526_1114698592" from="1114698592" to="1114698608" numLanes="1" speed="8.33" />
	<edge id="96176787_1114698588_1114698526_1114698608" from="1114698608" to="1114698595" numLanes="1" speed="8.33" />
	<edge id="96176787_1114698588_1114698526_1114698595" from="1114698595" to="1114698634" numLanes="1" speed="8.33" />
	<edge id="96176787_1114698588_1114698526_1114698634" from="1114698634" to="1114698622" numLanes="1" speed="8.33" />
	<edge id="96176787_1114698588_1114698526_1114698622" from="1114698622" to="1114698526" numLanes="1" speed="8.33" />
	<edge id="96179125_1114706531_1114706612_1114706531" from="1114706531" to="1114706644" numLanes="1" speed="8.33" />
	<edge id="96179125_1114706531_1114706612_1114706644" from="1114706644" to="1114706600" numLanes="1" speed="8.33" />
	<edge id="96179125_1114706531_1114706612_1114706600" from="1114706600" to="1114706584" numLanes="1" speed="8.33" />
	<edge id="96179125_1114706531_1114706612_1114706584" from="1114706584" to="1114706595" numLanes="1" speed="8.33" />
	<edge id="96179125_1114706531_1114706612_1114706595" from="1114706595" to="1114706550" numLanes="1" speed="8.33" />
	<edge id="96179125_1114706531_1114706612_1114706550" from="1114706550" to="1114706565" numLanes="1" speed="8.33" />
	<edge id="96179125_1114706531_1114706612_1114706565" from="1114706565" to="1114706612" numLanes="1" speed="8.33" />
	<edge id="96176789_1114698594_1713449228_1114698594" from="1114698594" to="1114698603" numLanes="1" speed="8.33" />
	<edge id="96176789_1114698594_1713449228_1114698603" from="1114698603" to="1114698590" numLanes="1" speed="8.33" />
	<edge id="96176789_1114698594_1713449228_1114698590" from="1114698590" to="1114698597" numLanes="1" speed="8.33" />
	<edge id="96176789_1114698594_1713449228_1114698597" from="1114698597" to="1114698568" numLanes="1" speed="8.33" />
	<edge id="96176789_1114698594_1713449228_1114698568" from="1114698568" to="1114698574" numLanes="1" speed="8.33" />
	<edge id="96176789_1114698594_1713449228_1114698574" from="1114698574" to="1713449228" numLanes="1" speed="8.33" />
	<edge id="96179125_1114706531_1114706538_1114706531" from="1114706531" to="1114706538" numLanes="1" speed="8.33" />
	<edge id="96170461_1114614410_1114614439_1114614410" from="1114614410" to="1114614422" numLanes="1" speed="8.33" />
	<edge id="96170461_1114614410_1114614439_1114614422" from="1114614422" to="1114614439" numLanes="1" speed="8.33" />
	<edge id="300954532_1114708786_1114708789_1114708786" from="1114708786" to="1114708781" numLanes="1" speed="8.33" />
	<edge id="300954532_1114708786_1114708789_1114708781" from="1114708781" to="1114708789" numLanes="1" speed="8.33" />
	<edge id="96179125_1114706612_1114706531_1114706612" from="1114706612" to="1114706565" numLanes="1" speed="8.33" />
	<edge id="96179125_1114706612_1114706531_1114706565" from="1114706565" to="1114706550" numLanes="1" speed="8.33" />