<connections>
	<connection from="96179936_1114708788_1114708789_1114708788" to="96179936_1114708788_1114708789_1114708783" />
	<connection from="96179936_1114708788_1114708789_1114708783" to="96179936_1114708788_1114708789_1114708791" />
	<connection from="96179936_1114708788_1114708789_1114708791" to="96179936_1114708789_1114708788_1114708789" />
	<connection from="96179936_1114708788_1114708789_1114708791" to="300954532_1114708789_1713449148_1114708789" />
	<connection from="96179936_1114708788_1114708789_1114708791" to="300954532_1114708789_1114708786_1114708789" />
	<connection from="96176789_1713449228_1114698594_1713449228" to="96176789_1713449228_1114698594_1114698574" />
	<connection from="96176789_1713449228_1114698594_1114698574" to="96176789_1713449228_1114698594_1114698568" />
	<connection from="96176789_1713449228_1114698594_1114698568" to="96176789_1713449228_1114698594_1114698597" />
	<connection from="96176789_1713449228_1114698594_1114698597" to="96176789_1713449228_1114698594_1114698590" />
	<connection from="96176789_1713449228_1114698594_1114698590" to="96176789_1713449228_1114698594_1114698603" />
	<connection from="96176789_1713449228_1114698594_1114698603" to="96176789_1114698594_1713449228_1114698594" />
	<connection from="301163309_1114706629_1114706536_1114706629" to="301163309_1114706629_1114706536_1114706553" />
	<connection from="301163309_1114706629_1114706536_1114706553" to="301163309_1114706629_1114706536_1114706573" />
	<connection from="301163309_1114706629_1114706536_1114706573" to="301163309_1114706629_1114706536_1114706523" />
	<connection from="301163309_1114706629_1114706536_1114706523" to="301163309_1114706629_1114706536_1114706602" />
	<connection from="301163309_1114706629_1114706536_1114706602" to="301163309_1114706629_1114706536_1114706620" />
	<connection from="301163309_1114706629_1114706536_1114706620" to="301163309_1114706629_1114706536_1114706574" />
	<connection from="301163309_1114706629_1114706536_1114706574" to="301163309_1114706629_1114706536_1114706589" />
	<connection from="301163309_1114706629_1114706536_1114706589" to="301163309_1114706629_1114706536_1114706542" />
	<connection from="301163309_1114706629_1114706536_1114706542" to="301163309_1114706629_1114706536_1114706555" />
	<connection from="301163309_1114706629_1114706536_1114706555" to="301163309_1114706629_1114706536_1114706658" />
	<connection from="301163309_1114706629_1114706536_1114706658" to="301163309_1114706629_1114706536_1114706526" />
	<connection from="301163309_1114706629_1114706536_1114706526" to="301163309_1114706629_1114706536_1114706623" />
	<connection from="301163309_1114706629_1114706536_1114706623" to="301163309_1114706629_1114706536_1114706570" />
	<connection from="301163309_1114706629_1114706536_1114706570" to="301163309_1114706629_1114706536_1114706515" />
	<connection from="301163309_1114706629_1114706536_1114706515" to="301163310_1114706536_1114706629_1114706536" />
	<connection from="96179132_1114708786_1114708792_1114708786" to="96179132_1114708786_1114708792_1114708779" />
	<connection from="96179132_1114708786_1114708792_1114708779" to="96179132_1114708786_1114708792_1114708780" />
	<connection from="96179132_1114708786_1114708792_1114708780" to="96179132_1114708786_1114708792_1114708793" />
	<connection from="96179132_1114708786_1114708792_1114708793" to="96179132_1114708786_1114708792_1114708778" />
	<connection from="96179132_1114708786_1114708792_1114708778" to="300954533_1114708792_1114687986_1114708792" />
	<connection from="96179132_1114708786_1114708792_1114708778" to="96179132_1114708792_1114708786_1114708792" />
	<connection from="96179132_1114708786_1114708792_1114708778" to="300954531_1114708792_1114708788_1114708792" />
	<connection from="96170461_1114614439_1114614410_1114614439" to="96170461_1114614439_1114614410_1114614422" />
	<connection from="96170461_1114614439_1114614410_1114614422" to="96170461_1114614410_1114614439_1114614410" />
	<connection from="300954531_1114708792_1114708788_1114708792" to="300954531_1114708792_1114708788_1114687990" />
	<connection from="300954531_1114708792_1114708788_1114687990" to="96179936_1114708788_1114708789_1114708788" />
	<connection from="300954531_1114708792_1114708788_1114687990" to="300954531_1114708788_1114708792_1114708788" />
	<connection from="300954531_1114708792_1114708788_1114687990" to="300954531_1114708788_1114614443_1114708788" />
	<connection from="96176789_1713449228_1114698627_1713449228" to="96176789_1713449228_1114698627_1114698549" />
	<connection from="96176789_1713449228_1114698627_1114698549" to="96176789_1713449228_1114698627_1114698556" />
	<connection from="96176789_1713449228_1114698627_1114698556" to="96176789_1713449228_1114698627_1114698638" />
	<connection from="96176789_1713449228_1114698627_1114698638" to="96176789_1713449228_1114698627_1114698521" />
	<connection from="96176789_1713449228_1114698627_1114698521" to="96176789_1713449228_1114698627_1114698613" />
	<connection from="96176789_1713449228_1114698627_1114698613" to="96175189_1114698627_1114698526_1114698627" />
	<connection from="96176789_1713449228_1114698627_1114698613" to="96176789_1114698627_1713449228_1114698627" />
	<connection from="300954533_1114687986_1114708792_1114687986" to="300954533_1114687986_1114708792_1114687903" />
	<connection from="300954533_1114687986_1114708792_1114687903" to="300954533_1114687986_1114708792_1114688005" />
	<connection from="300954533_1114687986_1114708792_1114688005" to="300954533_1114687986_1114708792_1114687916" />
	<connection from="300954533_1114687986_1114708792_1114687916" to="300954533_1114687986_1114708792_1114688009" />
	<connection from="300954533_1114687986_1114708792_1114688009" to="300954533_1114687986_1114708792_1114687927" />
	<connection from="300954533_1114687986_1114708792_1114687927" to="300954533_1114687986_1114708792_1114687922" />
	<connection from="300954533_1114687986_1114708792_1114687922" to="300954533_1114687986_1114708792_1114687950" />
	<connection from="300954533_1114687986_1114708792_1114687950" to="300954533_1114687986_1114708792_3051507485" />
	<connection from="300954533_1114687986_1114708792_3051507485" to="300954533_1114687986_1114708792_1114687944" />
	<connection from="300954533_1114687986_1114708792_1114687944" to="300954533_1114687986_1114708792_1114687969" />
	<connection from="300954533_1114687986_1114708792_1114687969" to="300954533_1114687986_1114708792_1114687964" />
	<connection from="300954533_1114687986_1114708792_1114687964" to="300954533_1114687986_1114708792_1114687994" />
	<connection from="300954533_1114687986_1114708792_1114687994" to="300954533_1114687986_1114708792_1114687988" />
	<connection from="300954533_1114687986_1114708792_1114687988" to="300954533_1114687986_1114708792_3050001480" />
	<connection from="300954533_1114687986_1114708792_3050001480" to="300954533_1114687986_1114708792_1114688007" />
	<connection from="300954533_1114687986_1114708792_1114688007" to="300954533_1114687986_1114708792_1114687925" />
	<connection from="300954533_1114687986_1114708792_1114687925" to="300954533_1114687986_1114708792_1114687920" />
	<connection from="300954533_1114687986_1114708792_1114687920" to="300954533_1114687986_1114708792_1114687948" />
	<connection from="300954533_1114687986_1114708792_1114687948" to="300954533_1114687986_1114708792_1114687943" />
	<connection from="300954533_1114687986_1114708792_1114687943" to="300954533_1114687986_1114708792_1114687960" />
	<connection from="300954533_1114687986_1114708792_1114687960" to="300954533_1114687986_1114708792_1114687947" />
	<connection from="300954533_1114687986_1114708792_1114687947" to="300954533_1114687986_1114708792_1114687983" />
	<connection from="300954533_1114687986_1114708792_1114687983" to="300954533_1114687986_1114708792_1114687966" />
	<connection from="300954533_1114687986_1114708792_1114687966" to="300954533_1114687986_1114708792_1114688004" />
	<connection from="300954533_1114687986_1114708792_1114688004" to="300954533_1114687986_1114708792_1114687991" />
	<connection from="300954533_1114687986_1114708792_1114687991" to="300954533_1114687986_1114708792_1114687919" />
	<connection from="300954533_1114687986_1114708792_1114687919" to="300954533_1114687986_1114708792_1114687902" />
	<connection from="300954533_1114687986_1114708792_1114687902" to="300954533_1114687986_1114708792_1114687928" />
	<connection from="300954533_1114687986_1114708792_1114687928" to="300954533_1114687986_1114708792_1114687923" />
	<connection from="300954533_1114687986_1114708792_1114687923" to="300954533_1114687986_1114708792_1114687951" />
	<connection from="300954533_1114687986_1114708792_1114687951" to="300954533_1114687986_1114708792_1114687946" />
	<connection from="300954533_1114687986_1114708792_1114687946" to="300954533_1114687986_1114708792_1114687972" />
	<connection from="300954533_1114687986_1114708792_1114687972" to="300954533_1114687986_1114708792_1114687965" />
	<connection from="300954533_1114687986_1114708792_1114687965" to="300954533_1114687986_1114708792_1114687995" />
	<connection from="300954533_1114687986_1114708792_1114687995" to="300954533_1114708792_1114687986_1114708792" />
	<connection from="300954533_1114687986_1114708792_1114687995" to="96179132_1114708792_1114708786_1114708792" />
	<connection from="300954533_1114687986_1114708792_1114687995" to="300954531_1114708792_1114708788_1114708792" />
	<connection from="300954533_1114708792_1114687986_1114708792" to="300954533_1114708792_1114687986_1114687995" />
	<connection from="300954533_1114708792_1114687986_1114687995" to="300954533_1114708792_1114687986_1114687965" />
	<connection from="300954533_1114708792_1114687986_1114687965" to="300954533_1114708792_1114687986_1114687972" />
	<connection from="300954533_1114708792_1114687986_1114687972" to="300954533_1114708792_1114687986_1114687946" />
	<connection from="300954533_1114708792_1114687986_1114687946" to="300954533_1114708792_1114687986_1114687951" />
	<connection from="300954533_1114708792_1114687986_1114687951" to="300954533_1114708792_1114687986_1114687923" />
	<connection from="300954533_1114708792_1114687986_1114687923" to="300954533_1114708792_1114687986_1114687928" />
	<connection from="300954533_1114708792_1114687986_1114687928" to="300954533_1114708792_1114687986_1114687902" />
	<connection from="300954533_1114708792_1114687986_1114687902" to="300954533_1114708792_1114687986_1114687919" />
	<connection from="300954533_1114708792_1114687986_1114687919" to="300954533_1114708792_1114687986_1114687991" />
	<connection from="300954533_1114708792_1114687986_1114687991" to="300954533_1114708792_1114687986_1114688004" />
	<connection from="300954533_1114708792_1114687986_1114688004" to="300954533_1114708792_1114687986_1114687966" />
	<connection from="300954533_1114708792_1114687986_1114687966" to="300954533_1114708792_1114687986_1114687983" />
	<connection from="300954533_1114708792_1114687986_1114687983" to="300954533_1114708792_1114687986_1114687947" />
	<connection from="300954533_1114708792_1114687986_1114687947" to="300954533_1114708792_1114687986_1114687960" />
	<connection from="300954533_1114708792_1114687986_1114687960" to="300954533_1114708792_1114687986_1114687943" />
	<connection from="300954533_1114708792_1114687986_1114687943" to="300954533_1114708792_1114687986_1114687948" />
	<connection from="300954533_1114708792_1114687986_1114687948" to="300954533_1114708792_1114687986_1114687920" />
	<connection from="300954533_1114708792_1114687986_1114687920" to="300954533_1114708792_1114687986_1114687925" />
	<connection from="300954533_1114708792_1114687986_1114687925" to="300954533_1114708792_1114687986_1114688007" />
	<connection from="300954533_1114708792_1114687986_1114688007" to="300954533_1114708792_1114687986_3050001480" />
	<connection from="300954533_1114708792_1114687986_3050001480" to="300954533_1114708792_1114687986_1114687988" />
	<connection from="300954533_1114708792_1114687986_1114687988" to="300954533_1114708792_1114687986_1114687994" />
	<connection from="300954533_1114708792_1114687986_1114687994" to="300954533_1114708792_1114687986_1114687964" />
	<connection from="300954533_1114708792_1114687986_1114687964" to="300954533_1114708792_1114687986_1114687969" />
	<connection from="300954533_1114708792_1114687986_1114687969" to="300954533_1114708792_1114687986_1114687944" />
	<connection from="300954533_1114708792_1114687986_1114687944" to="300954533_1114708792_1114687986_3051507485" />
	<connection from="300954533_1114708792_1114687986_3051507485" to="300954533_1114708792_1114687986_1114687950" />
	<connection from="300954533_1114708792_1114687986_1114687950" to="300954533_1114708792_1114687986_1114687922" />
	<connection from="300954533_1114708792_1114687986_1114687922" to="300954533_1114708792_1114687986_1114687927" />
	<connection from="300954533_1114708792_1114687986_1114687927" to="300954533_1114708792_1114687986_1114688009" />
	<connection from="300954533_1114708792_1114687986_1114688009" to="300954533_1114708792_1114687986_1114687916" />
	<connection from="300954533_1114708792_1114687986_1114687916" to="300954533_1114708792_1114687986_1114688005" />
	<connection from="300954533_1114708792_1114687986_1114688005" to="300954533_1114708792_1114687986_1114687903" />
	<connection from="300954533_1114708792_1114687986_1114687903" to="300954533_1114687986_1114708792_1114687986" />
	<connection from="96179135_1114706612_1114706527_1114706612" to="96179135_1114706612_1114706527_1114706641" />
	<connection from="96179135_1114706612_1114706527_1114706641" to="96179135_1114706612_1114706527_1114706661" />
	<connection from="96179135_1114706612_1114706527_1114706661" to="96179135_1114706612_1114706527_1114706638" />
	<connection from="96179135_1114706612_1114706527_1114706638" to="96179135_1114706612_1114706527_1114706646" />
	<connection from="96179135_1114706612_1114706527_1114706646" to="96179135_1114706612_1114706527_1114706614" />
	<connection from="96179135_1114706612_1114706527_1114706614" to="96179135_1114706612_1114706527_1114706545" />
	<connection from="96179135_1114706612_1114706527_1114706545" to="96179135_1114706612_1114706527_1114706642" />
	<connection from="96179135_1114706612_1114706527_1114706642" to="96179135_1114706612_1114706527_1114706662" />
	<connection from="96179135_1114706612_1114706527_1114706662" to="96179135_1114706612_1114706527_1114706622" />
	<connection from="96179135_1114706612_1114706527_1114706622" to="96179135_1114706612_1114706527_1114706625" />
	<connection from="96179135_1114706612_1114706527_1114706625" to="96179135_1114706612_1114706527_1114706592" />
	<connection from="96179135_1114706612_1114706527_1114706592" to="96179135_1114706612_1114706527_1114706607" />
	<connection from="96179135_1114706612_1114706527_1114706607" to="96179135_1114706612_1114706527_1114706563" />
	<connection from="96179135_1114706612_1114706527_1114706563" to="96179135_1114706612_1114706527_1114706576" />
	<connection from="96179135_1114706612_1114706527_1114706576" to="96179135_1114706612_1114706527_1114698624" />
	<connection from="96179135_1114706612_1114706527_1114698624" to="96179135_1114706612_1114706527_1114706591" />
	<connection from="96179135_1114706612_1114706527_1114706591" to="96179135_1114706612_1114706527_1114706605" />
	<connection from="96179135_1114706612_1114706527_1114706605" to="96179135_1114706612_1114706527_1114706557" />
	<connection from="96179135_1114706612_1114706527_1114706557" to="96179135_1114706612_1114706527_1114706575" />
	<connection from="96179135_1114706612_1114706527_1114706575" to="96179125_1114706527_1114706612_1114706527" />
	<connection from="96179135_1114706612_1114706527_1114706575" to="96179125_1114706527_1114706587_1114706527" />
	<connection from="300954532_1114706519_1713449148_1114706519" to="300954532_1114706519_1713449148_1114706648" />
	<connection from="300954532_1114706519_1713449148_1114706648" to="300954532_1713449148_1114708789_1713449148" />
	<connection from="300954532_1114706519_1713449148_1114706648" to="159252278_1713449148_1713449228_1713449148" />
	<connection from="300954532_1114706519_1713449148_1114706648" to="300954532_1713449148_1114706519_1713449148" />
	<connection from="159252278_1713449228_1713449148_1713449228" to="300954532_1713449148_1114708789_1713449148" />
	<connection from="159252278_1713449228_1713449148_1713449228" to="159252278_1713449148_1713449228_1713449148" />
	<connection from="159252278_1713449228_1713449148_1713449228" to="300954532_1713449148_1114706519_1713449148" />
	<connection from="96176787_1114698526_1114698588_1114698526" to="96176787_1114698526_1114698588_1114698622" />
	<connection from="96176787_1114698526_1114698588_1114698622" to="96176787_1114698526_1114698588_1114698634" />
	<connection from="96176787_1114698526_1114698588_1114698634" to="96176787_1114698526_1114698588_1114698595" />
	<connection from="96176787_1114698526_1114698588_1114698595" to="96176787_1114698526_1114698588_1114698608" />
	<connection from="96176787_1114698526_1114698588_1114698608" to="96176787_1114698526_1114698588_1114698592" />
	<connection from="96176787_1114698526_1114698588_1114698592" to="96176787_1114698526_1114698588_1114698600" />
	<connection from="96176787_1114698526_1114698588_1114698600" to="96176787_1114698526_1114698588_1114698571" />
	<connection from="96176787_1114698526_1114698588_1114698571" to="96176787_1114698526_1114698588_1114698577" />
	<connection from="96176787_1114698526_1114698588_1114698577" to="96176787_1114698526_1114698588_1114698553" />
	<connection from="96176787_1114698526_1114698588_1114698553" to="96176787_1114698526_1114698588_1114698562" />
	<connection from="96176787_1114698526_1114698588_1114698562" to="96176787_1114698526_1114698588_1114698639" />
	<connection from="96176787_1114698526_1114698588_1114698639" to="96176787_1114698526_1114698588_1114698522" />
	<connection from="96176787_1114698526_1114698588_1114698522" to="96176787_1114698526_1114698588_1114698615" />
	<connection from="96176787_1114698526_1114698588_1114698615" to="96176787_1114698526_1114698588_1114698629" />
	<connection from="96176787_1114698526_1114698588_1114698629" to="96176787_1114698526_1114698588_1114698593" />
	<connection from="96176787_1114698526_1114698588_1114698593" to="96176787_1114698526_1114698588_1114698602" />
	<connection from="96176787_1114698526_1114698588_1114698602" to="96176787_1114698526_1114698588_1114698572" />
	<connection from="96176787_1114698526_1114698588_1114698572" to="96176787_1114698526_1114698588_7184885457" />
	<connection from="96176787_1114698526_1114698588_7184885457" to="96176787_1114698588_1114698526_1114698588" />
	<connection from="300954532_1713449148_1114706519_1713449148" to="300954532_1713449148_1114706519_1114706648" />
	<connection from="300954532_1713449148_1114706519_1114706648" to="300954532_1114706519_1114706624_1114706519" />
	<connection from="300954532_1713449148_1114706519_1114706648" to="96179130_1114706519_1114706538_1114706519" />
	<connection from="300954532_1713449148_1114706519_1114706648" to="300954532_1114706519_1713449148_1114706519" />
	<connection from="96179125_1114614439_1114706587_1114614439" to="96179125_1114614439_1114706587_1114706609" />
	<connection from="96179125_1114614439_1114706587_1114706609" to="96179125_1114706587_1114614439_1114706587" />
	<connection from="96179125_1114614439_1114706587_1114706609" to="96179130_1114706587_1114706538_1114706587" />
	<connection from="96179125_1114614439_1114706587_1114706609" to="96179125_1114706587_1114706527_1114706587" />
	<connection from="96179130_1114706538_1114706587_1114706538" to="96179130_1114706538_1114706587_1114706551" />
	<connection from="96179130_1114706538_1114706587_1114706551" to="96179130_1114706538_1114706587_1114706596" />
	<connection from="96179130_1114706538_1114706587_1114706596" to="96179125_1114706587_1114614439_1114706587" />
	<connection from="96179130_1114706538_1114706587_1114706596" to="96179130_1114706587_1114706538_1114706587" />
	<connection from="96179130_1114706538_1114706587_1114706596" to="96179125_1114706587_1114706527_1114706587" />
	<connection from="300954531_1114708788_1114614443_1114708788" to="300954531_1114708788_1114614443_1114614417" />
	<connection from="300954531_1114708788_1114614443_1114614417" to="300954531_1114708788_1114614443_1114614431" />
	<connection from="300954531_1114708788_1114614443_1114614431" to="300954531_1114614443_1114708788_1114614443" />
	<connection from="96179132_1114708792_1114708786_1114708792" to="96179132_1114708792_1114708786_1114708778" />
	<connection from="96179132_1114708792_1114708786_1114708778" to="96179132_1114708792_1114708786_1114708793" />
	<connection from="96179132_1114708792_1114708786_1114708793" to="96179132_1114708792_1114708786_1114708780" />
	<connection from="96179132_1114708792_1114708786_1114708780" to="96179132_1114708792_1114708786_1114708779" />
	<connection from="96179132_1114708792_1114708786_1114708779" to="96179132_1114708786_1114708792_1114708786" />
	<connection from="96179132_1114708792_1114708786_1114708779" to="300954532_1114708786_1114708789_1114708786" />
	<connection from="300954532_1114706519_1114706624_1114706519" to="300954532_1114706519_1114706624_1114706561" />
	<connection from="300954532_1114706519_1114706624_1114706561" to="300954532_1114706519_1114706624_1114706663" />
	<connection from="300954532_1114706519_1114706624_1114706663" to="300954532_1114706624_1114706519_1114706624" />
	<connection from="300954532_1114706519_1114706624_1114706663" to="300954532_1114706624_1114706629_1114706624" />
	<connection from="300954532_1114706519_1114706624_1114706663" to="96179129_1114706624_1114706531_1114706624" />
	<connection from="300954531_1114614443_1114708788_1114614443" to="300954531_1114614443_1114708788_1114614431" />
	<connection from="300954531_1114614443_1114708788_1114614431" to="300954531_1114614443_1114708788_1114614417" />
	<connection from="300954531_1114614443_1114708788_1114614417" to="96179936_1114708788_1114708789_1114708788" />
	<connection from="300954531_1114614443_1114708788_1114614417" to="300954531_1114708788_1114708792_1114708788" />
	<connection from="300954531_1114614443_1114708788_1114614417" to="300954531_1114708788_1114614443_1114708788" />
	<connection from="96179130_1114706519_1114706538_1114706519" to="96179130_1114706519_1114706538_1114706571" />
	<connection from="96179130_1114706519_1114706538_1114706571" to="96179130_1114706538_1114706587_1114706538" />
	<connection from="96179130_1114706519_1114706538_1114706571" to="96179125_1114706538_1114706531_1114706538" />
	<connection from="96179130_1114706519_1114706538_1114706571" to="96179130_1114706538_1114706519_1114706538" />
	<connection from="300954532_1114706629_1114706624_1114706629" to="300954532_1114706629_1114706624_1114706597" />
	<connection from="300954532_1114706629_1114706624_1114706597" to="300954532_1114706624_1114706519_1114706624" />
	<connection from="300954532_1114706629_1114706624_1114706597" to="300954532_1114706624_1114706629_1114706624" />
	<connection from="300954532_1114706629_1114706624_1114706597" to="96179129_1114706624_1114706531_1114706624" />
	<connection from="96175189_1114698526_1114693344_1114698526" to="96175189_1114698526_1114693344_1114693342" />
	<connection from="96175189_1114698526_1114693344_1114693342" to="96175189_1114698526_1114693344_1114693346" />
	<connection from="96175189_1114698526_1114693344_1114693346" to="96175189_1114698526_1114693344_1114693343" />
	<connection from="96175189_1114698526_1114693344_1114693343" to="96175189_1114698526_1114693344_1114693362" />
	<connection from="96175189_1114698526_1114693344_1114693362" to="96175189_1114698526_1114693344_1114698564" />
	<connection from="96175189_1114698526_1114693344_1114698564" to="96175189_1114698526_1114693344_1114693353" />
	<connection from="96175189_1114698526_1114693344_1114693353" to="96175189_1114693344_1114698627_1114693344" />
	<connection from="96176789_1114698627_1713449228_1114698627" to="96176789_1114698627_1713449228_1114698613" />
	<connection from="96176789_1114698627_1713449228_1114698613" to="96176789_1114698627_1713449228_1114698521" />
	<connection from="96176789_1114698627_1713449228_1114698521" to="96176789_1114698627_1713449228_1114698638" />
	<connection from="96176789_1114698627_1713449228_1114698638" to="96176789_1114698627_1713449228_1114698556" />
	<connection from="96176789_1114698627_1713449228_1114698556" to="96176789_1114698627_1713449228_1114698549" />
	<connection from="96176789_1114698627_1713449228_1114698549" to="96176789_1713449228_1114698627_1713449228" />
	<connection from="96176789_1114698627_1713449228_1114698549" to="96176789_1713449228_1114698594_1713449228" />
	<connection from="96176789_1114698627_1713449228_1114698549" to="159252278_1713449228_1713449148_1713449228" />
	<connection from="96175189_1114693344_1114698627_1114693344" to="96175189_1114698627_1114698526_1114698627" />
	<connection from="96175189_1114693344_1114698627_1114693344" to="96176789_1114698627_1713449228_1114698627" />
	<connection from="300954532_1114708789_1713449148_1114708789" to="300954532_1114708789_1713449148_1114708790" />
	<connection from="300954532_1114708789_1713449148_1114708790" to="300954532_1114708789_1713449148_1114706572" />
	<connection from="300954532_1114708789_1713449148_1114706572" to="300954532_1114708789_1713449148_1114706521" />
	<connection from="300954532_1114708789_1713449148_1114706521" to="300954532_1114708789_1713449148_1114706540" />
	<connection from="300954532_1114708789_1713449148_1114706540" to="300954532_1114708789_1713449148_1114706640" />
	<connection from="300954532_1114708789_1713449148_1114706640" to="300954532_1713449148_1114708789_1713449148" />
	<connection from="300954532_1114708789_1713449148_1114706640" to="159252278_1713449148_1713449228_1713449148" />
	<connection from="300954532_1114708789_1713449148_1114706640" to="300954532_1713449148_1114706519_1713449148" />
	<connection from="96175189_1114698627_1114698526_1114698627" to="96175189_1114698627_1114698526_1114693360" />
	<connection from="96175189_1114698627_1114698526_1114693360" to="96175189_1114698627_1114698526_1114693350" />
	<connection from="96175189_1114698627_1114698526_1114693350" to="96175189_1114698526_1114693344_1114698526" />
	<connection from="96175189_1114698627_1114698526_1114693350" to="96176787_1114698526_1114698588_1114698526" />
	<connection from="300954532_1114708789_1114708786_1114708789" to="300954532_1114708789_1114708786_1114708781" />
	<connection from="300954532_1114708789_1114708786_1114708781" to="96179132_1114708786_1114708792_1114708786" />
	<connection from="300954532_1114708789_1114708786_1114708781" to="300954532_1114708786_1114708789_1114708786" />
	<connection from="96179125_1114706587_1114614439_1114706587" to="96179125_1114706587_1114614439_1114706609" />
	<connection from="96179125_1114706587_1114614439_1114706609" to="96179125_1114614439_1114706587_1114614439" />
	<connection from="96179125_1114706587_1114614439_1114706609" to="96170461_1114614439_1114614410_1114614439" />
	<connection from="96179125_1114706527_1114706612_1114706527" to="96179125_1114706612_1114706531_1114706612" />
	<connection from="96179125_1114706527_1114706612_1114706527" to="96179135_1114706612_1114706527_1114706612" />
	<connection from="96179125_1114706527_1114706612_1114706527" to="96179125_1114706612_1114706527_1114706612" />
	<connection from="96179130_1114706587_1114706538_1114706587" to="96179130_1114706587_1114706538_1114706596" />
	<connection from="96179130_1114706587_1114706538_1114706596" to="96179130_1114706587_1114706538_1114706551" />
	<connection from="96179130_1114706587_1114706538_1114706551" to="96179130_1114706538_1114706587_1114706538" />
	<connection from="96179130_1114706587_1114706538_1114706551" to="96179125_1114706538_1114706531_1114706538" />
	<connection from="96179130_1114706587_1114706538_1114706551" to="96179130_1114706538_1114706519_1114706538" />
	<connection from="96179130_1114706538_1114706519_1114706538" to="96179130_1114706538_1114706519_1114706571" />
	<connection from="96179130_1114706538_1114706519_1114706571" to="300954532_1114706519_1114706624_1114706519" />
	<connection from="96179130_1114706538_1114706519_1114706571" to="96179130_1114706519_1114706538_1114706519" />
	<connection from="96179130_1114706538_1114706519_1114706571" to="300954532_1114706519_1713449148_1114706519" />
	<connection from="159252278_1713449148_1713449228_1713449148" to="96176789_1713449228_1114698627_1713449228" />
	<connection from="159252278_1713449148_1713449228_1713449148" to="96176789_1713449228_1114698594_1713449228" />
	<connection from="159252278_1713449148_1713449228_1713449148" to="159252278_1713449228_1713449148_1713449228" />
	<connection from="96179936_1114708789_1114708788_1114708789" to="96179936_1114708789_1114708788_1114708791" />
	<connection from="96179936_1114708789_1114708788_1114708791" to="96179936_1114708789_1114708788_1114708783" />
	<connection from="96179936_1114708789_1114708788_1114708783" to="96179936_1114708788_1114708789_1114708788" />
	<connection from="96179936_1114708789_1114708788_1114708783" to="300954531_1114708788_1114708792_1114708788" />
	<connection from="96179936_1114708789_1114708788_1114708783" to="300954531_1114708788_1114614443_1114708788" />
	<connection from="300954532_1114706624_1114706519_1114706624" to="300954532_1114706624_1114706519_1114706663" />
	<connection from="300954532_1114706624_1114706519_1114706663" to="300954532_1114706624_1114706519_1114706561" />
	<connection from="300954532_1114706624_1114706519_1114706561" to="300954532_1114706519_1114706624_1114706519" />
	<connection from="300954532_1114706624_1114706519_1114706561" to="96179130_1114706519_1114706538_1114706519" />
	<connection from="300954532_1114706624_1114706519_1114706561" to="300954532_1114706519_1713449148_1114706519" />