<nodes>
	<node id="3050985687" x="635643.0737" y="4349192.0063" z="0.0000" type="priority" />
	<node id="3050985688" x="635597.8010" y="4349203.5092" z="0.0000" type="priority" />
	<node id="3050985689" x="635632.3867" y="4349208.2068" z="0.0000" type="priority" />
	<node id="1713456558" x="635174.7250" y="4349346.0988" z="0.0000" type="priority" />
	<node id="3050925374" x="635491.1346" y="4349464.2813" z="0.0000" type="priority" />
	<node id="3050925371" x="635484.3098" y="4349431.5012" z="0.0000" type="priority" />
	<node id="563003515" x="635685.3787" y="4349172.5476" z="0.0000" type="priority" />
	<node id="3050925370" x="635491.9143" y="4349425.8381" z="0.0000" type="priority" />
	<node id="3050925373" x="635406.9813" y="4349444.3137" z="0.0000" type="priority" />
	<node id="3050925372" x="635405.2866" y="4349439.0553" z="0.0000" type="priority" />
	<node id="1761411988" x="635393.0497" y="4349123.4624" z="0.0000" type="priority" />
	<node id="1713456551" x="635305.9938" y="4349185.0884" z="0.0000" type="priority" />
	<node id="3051541130" x="635311.0792" y="4348973.4095" z="0.0000" type="priority" />
	<node id="1713456545" x="635318.5559" y="4349181.1209" z="0.0000" type="priority" />
	<node id="4962322798" x="635451.5153" y="4348683.9124" z="0.0000" type="priority" />
	<node id="1761411996" x="635400.5887" y="4348928.1456" z="0.0000" type="priority" />
	<node id="4962322796" x="635484.9424" y="4348624.7648" z="0.0000" type="priority" />
	<node id="4962322794" x="635511.3990" y="4348683.3310" z="0.0000" type="priority" />
	<node id="4962322795" x="635463.0507" y="4348662.0977" z="0.0000" type="priority" />
	<node id="1961268893" x="635420.7315" y="4349122.7992" z="0.0000" type="priority" />
	<node id="1761411970" x="635670.2743" y="4349051.7634" z="0.0000" type="priority" />
	<node id="3735878249" x="635942.1697" y="4348664.6776" z="0.0000" type="priority" />
	<node id="563011155" x="635886.3127" y="4349641.9778" z="0.0000" type="priority" />
	<node id="1713456533" x="635185.5934" y="4349327.8248" z="0.0000" type="priority" />
	<node id="3050848631" x="635499.3133" y="4349027.0556" z="0.0000" type="priority" />
	<node id="3050848632" x="635507.5249" y="4349037.1344" z="0.0000" type="priority" />
	<node id="1114682722" x="635459.0156" y="4348790.6755" z="0.0000" type="priority" />
	<node id="1114682721" x="635345.9033" y="4348932.5814" z="0.0000" type="priority" />
	<node id="1114682720" x="635573.7686" y="4348910.1920" z="0.0000" type="priority" />
	<node id="3050985691" x="635549.9979" y="4349278.2377" z="0.0000" type="priority" />
	<node id="563011143" x="635884.5155" y="4349629.7456" z="0.0000" type="priority" />
	<node id="3050925368" x="635485.4350" y="4349418.3761" z="0.0000" type="priority" />
	<node id="3050925367" x="635596.1104" y="4349339.5217" z="0.0000" type="priority" />
	<node id="3050925369" x="635409.9583" y="4349420.4298" z="0.0000" type="priority" />
	<node id="3050925366" x="635653.1790" y="4349296.6170" z="0.0000" type="priority" />
	<node id="1713456529" x="635321.5217" y="4349182.2492" z="0.0000" type="priority" />
	<node id="1761411971" x="635729.0817" y="4349002.7833" z="0.0000" type="priority" />
	<node id="1761374681" x="635289.0736" y="4348704.3420" z="0.0000" type="priority" />
	<node id="563003524" x="635690.7215" y="4349191.7800" z="0.0000" type="priority" />
	<node id="3050985690" x="635615.6777" y="4349222.4043" z="0.0000" type="priority" />
	<node id="1761411976" x="635476.7682" y="4348911.7270" z="0.0000" type="priority" />
	<node id="563011173" x="635877.4137" y="4349696.6993" z="0.0000" type="priority" />
	<node id="563003314" x="635424.2162" y="4349117.8861" z="0.0000" type="priority" />
	<node id="1761375365" x="635281.6321" y="4348691.6124" z="0.0000" type="priority" />
	<node id="1761411942" x="635381.0732" y="4349055.8665" z="0.0000" type="priority" />
	<node id="1761411715" x="635414.4059" y="4349055.2459" z="0.0000" type="priority" />
	<node id="3051541103" x="635260.3754" y="4348902.9666" z="0.0000" type="priority" />
	<node id="3051541101" x="635240.7762" y="4348905.2025" z="0.0000" type="priority" />
	<node id="563003308" x="635402.1847" y="4349131.0480" z="0.0000" type="priority" />
	<node id="3051541105" x="635265.2381" y="4348910.1449" z="0.0000" type="priority" />
	<node id="563003302" x="635355.5552" y="4349173.5250" z="0.0000" type="priority" />
	<node id="3050288722" x="635751.8952" y="4349006.7216" z="0.0000" type="priority" />
	<node id="563003540" x="635678.5763" y="4349249.6648" z="0.0000" type="priority" />
	<node id="3050848628" x="635477.8900" y="4349014.1053" z="0.0000" type="priority" />
	<node id="3050848629" x="635534.0841" y="4349025.6167" z="0.0000" type="priority" />
	<node id="563003330" x="635457.6098" y="4349040.6752" z="0.0000" type="priority" />
	<node id="3050445893" x="635377.1466" y="4349094.2107" z="0.0000" type="priority" />
	<node id="3050345202" x="635577.5442" y="4348915.8640" z="0.0000" type="priority" />
	<node id="3050445892" x="635376.5842" y="4349086.8404" z="0.0000" type="priority" />
	<node id="958731832" x="635489.0902" y="4348704.4368" z="0.0000" type="priority" />
	<node id="3049684333" x="635842.3110" y="4348862.4501" z="0.0000" type="priority" />
	<node id="3050345200" x="635596.4990" y="4348896.5875" z="0.0000" type="priority" />
	<node id="3051541109" x="635247.3409" y="4348913.2541" z="0.0000" type="priority" />
	<node id="3050345201" x="635594.0493" y="4348902.0071" z="0.0000" type="priority" />
	<node id="3049684335" x="635839.3785" y="4348925.3354" z="0.0000" type="priority" />
	<node id="3049684334" x="635845.2606" y="4348874.4248" z="0.0000" type="priority" />
	<node id="3050040928" x="635666.2762" y="4348947.7252" z="0.0000" type="priority" />
	<node id="3050040927" x="635690.4899" y="4348942.6064" z="0.0000" type="priority" />
	<node id="3050040926" x="635683.2961" y="4348934.0439" z="0.0000" type="priority" />
	<node id="3051541111" x="635270.8132" y="4348919.0342" z="0.0000" type="priority" />
	<node id="3050040925" x="635702.1205" y="4348927.2438" z="0.0000" type="priority" />
	<node id="1761411929" x="635455.4541" y="4348924.7792" z="0.0000" type="priority" />
	<node id="3050040929" x="635670.5911" y="4348953.6398" z="0.0000" type="priority" />
	<node id="3050040920" x="635729.8849" y="4348896.5749" z="0.0000" type="priority" />
	<node id="1713456571" x="635218.2884" y="4349287.2591" z="0.0000" type="priority" />
	<node id="3049952833" x="635817.8335" y="4348760.2424" z="0.0000" type="priority" />
	<node id="563003338" x="635468.2639" y="4349021.8871" z="0.0000" type="priority" />
	<node id="3050040924" x="635697.8573" y="4348922.3293" z="0.0000" type="priority" />
	<node id="1713456575" x="635327.9879" y="4349195.4614" z="0.0000" type="priority" />
	<node id="3050040923" x="635720.2340" y="4348918.6551" z="0.0000" type="priority" />
	<node id="3049952832" x="635869.4184" y="4348643.5606" z="0.0000" type="priority" />
	<node id="3050040922" x="635713.6347" y="4348909.6478" z="0.0000" type="priority" />
	<node id="3050040921" x="635733.0429" y="4348901.0373" z="0.0000" type="priority" />
	<node id="3051541119" x="635285.7299" y="4348932.0709" z="0.0000" type="priority" />
	<node id="3051541122" x="635299.8458" y="4348940.5310" z="0.0000" type="priority" />
	<node id="3051541128" x="635293.2634" y="4348972.3235" z="0.0000" type="priority" />
	<node id="3051541129" x="635302.3134" y="4348972.8800" z="0.0000" type="priority" />
	<node id="3050040931" x="635658.3752" y="4348968.4260" z="0.0000" type="priority" />
	<node id="3050040930" x="635651.4090" y="4348959.6788" z="0.0000" type="priority" />
	<node id="3049952825" x="635900.0186" y="4348614.6402" z="0.0000" type="priority" />
	<node id="3051507485" x="635244.7328" y="4348607.1765" z="0.0000" type="priority" />
	<node id="958731816" x="635687.7052" y="4348537.0080" z="0.0000" type="priority" />
	<node id="563003562" x="635639.5826" y="4349347.1715" z="0.0000" type="priority" />
	<node id="563003323" x="635440.6985" y="4349076.9733" z="0.0000" type="priority" />
	<node id="3050040932" x="635635.9379" y="4348972.1215" z="0.0000" type="priority" />
	<node id="4962323023" x="635655.7020" y="4348556.3240" z="0.0000" type="priority" />
	<node id="3049952220" x="635846.6764" y="4348708.3215" z="0.0000" type="priority" />
	<node id="3050473784" x="635631.4743" y="4348715.6027" z="0.0000" type="priority" />
	<node id="4962323024" x="635571.1617" y="4348626.6394" z="0.0000" type="priority" />
	<node id="3049952223" x="635860.1797" y="4348723.2110" z="0.0000" type="priority" />
	<node id="3050473781" x="635628.2503" y="4348714.4365" z="0.0000" type="priority" />
	<node id="3049952222" x="635867.8938" y="4348716.2623" z="0.0000" type="priority" />
	<node id="4962323022" x="635494.1304" y="4348648.7044" z="0.0000" type="priority" />
	<node id="3050473787" x="635633.3138" y="4348718.9874" z="0.0000" type="priority" />
	<node id="3050473786" x="635622.1416" y="4348717.8940" z="0.0000" type="priority" />
	<node id="6535001472" x="635318.2536" y="4349122.4314" z="0.0000" type="priority" />
	<node id="1114675379" x="635870.4579" y="4348364.7561" z="0.0000" type="priority" />
	<node id="1114675381" x="635894.5832" y="4348343.0168" z="0.0000" type="priority" />
	<node id="3049952218" x="635855.4967" y="4348701.7695" z="0.0000" type="priority" />
	<node id="3049952217" x="635846.8330" y="4348701.3078" z="0.0000" type="priority" />
	<node id="3049952219" x="635850.2618" y="4348705.0866" z="0.0000" type="priority" />
	<node id="3049668071" x="635661.1719" y="4349010.0510" z="0.0000" type="priority" />
	<node id="563003356" x="635538.3925" y="4348981.7283" z="0.0000" type="priority" />
	<node id="3050473794" x="635628.0314" y="4348727.0333" z="0.0000" type="priority" />
	<node id="3050882399" x="635376.4275" y="4348887.9709" z="0.0000" type="priority" />
	<node id="3050882393" x="635384.4261" y="4348869.5585" z="0.0000" type="priority" />
	<node id="1114675386" x="635664.7372" y="4348557.7578" z="0.0000" type="priority" />
	<node id="3050882390" x="635316.5639" y="4348841.2043" z="0.0000" type="priority" />
	<node id="3050473790" x="635633.1657" y="4348721.5494" z="0.0000" type="priority" />
	<node id="3050882396" x="635372.4759" y="4348880.9970" z="0.0000" type="priority" />
	<node id="3050882395" x="635392.5871" y="4348869.6446" z="0.0000" type="priority" />
	<node id="3050882394" x="635386.5371" y="4348873.2143" z="0.0000" type="priority" />
	<node id="3049668064" x="635670.8706" y="4349002.0819" z="0.0000" type="priority" />
	<node id="563003347" x="635493.5581" y="4349002.2208" z="0.0000" type="priority" />
	<node id="1761375398" x="635259.1644" y="4348825.9767" z="0.0000" type="priority" />
	<node id="1713456383" x="635291.7838" y="4349217.4148" z="0.0000" type="priority" />
	<node id="3049929466" x="635279.4601" y="4348836.8308" z="0.0000" type="priority" />
	<node id="563003371" x="635747.5053" y="4348795.7992" z="0.0000" type="priority" />
	<node id="3049929467" x="635273.9143" y="4348835.2027" z="0.0000" type="priority" />
	<node id="3049929464" x="635342.0068" y="4348797.5491" z="0.0000" type="priority" />
	<node id="3050882387" x="635342.4304" y="4348828.3529" z="0.0000" type="priority" />
	<node id="3050515808" x="635800.1993" y="4348789.3554" z="0.0000" type="priority" />
	<node id="3049929465" x="635282.9082" y="4348831.5395" z="0.0000" type="priority" />
	<node id="3049929463" x="635433.0949" y="4348741.4998" z="0.0000" type="priority" />
	<node id="1961268811" x="635427.7927" y="4349111.1649" z="0.0000" type="priority" />
	<node id="3049929461" x="635480.5639" y="4348702.0240" z="0.0000" type="priority" />
	<node id="1114675356" x="635691.6953" y="4348523.4000" z="0.0000" type="priority" />
	<node id="3050882386" x="635341.4372" y="4348826.9146" z="0.0000" type="priority" />
	<node id="3050882385" x="635356.0661" y="4348820.7293" z="0.0000" type="priority" />
	<node id="3050882384" x="635355.1022" y="4348819.0917" z="0.0000" type="priority" />
	<node id="3049929468" x="635266.2970" y="4348838.1014" z="0.0000" type="priority" />
	<node id="3049929469" x="635272.1837" y="4348842.4554" z="0.0000" type="priority" />
	<node id="3049652739" x="635622.0333" y="4348983.3036" z="0.0000" type="priority" />
	<node id="3051938480" x="635714.4458" y="4349510.9043" z="0.0000" type="priority" />
	<node id="1114675362" x="635411.4504" y="4348757.6548" z="0.0000" type="priority" />
	<node id="3051938483" x="635717.4789" y="4349514.5985" z="0.0000" type="priority" />
	<node id="3051938487" x="635721.5491" y="4349519.6762" z="0.0000" type="priority" />
	<node id="1713456376" x="635306.7213" y="4349202.3421" z="0.0000" type="priority" />
	<node id="3051938485" x="635713.0909" y="4349518.3634" z="0.0000" type="priority" />
	<node id="3049952232" x="635826.3461" y="4348753.0189" z="0.0000" type="priority" />
	<node id="3050208421" x="635270.7193" y="4348879.6544" z="0.0000" type="priority" />
	<node id="563003363" x="635611.6362" y="4348913.2924" z="0.0000" type="priority" />
	<node id="3050208423" x="635271.6362" y="4348886.9864" z="0.0000" type="priority" />
	<node id="3050208424" x="635261.0075" y="4348888.4008" z="0.0000" type="priority" />
	<node id="6040221539" x="635327.5224" y="4349238.7172" z="0.0000" type="priority" />
	<node id="3050208426" x="635266.7579" y="4348895.1394" z="0.0000" type="priority" />
	<node id="1114675365" x="635926.4733" y="4348324.8322" z="0.0000" type="priority" />
	<node id="3051555168" x="635293.4355" y="4348864.8498" z="0.0000" type="priority" />
	<node id="3051555165" x="635303.2349" y="4348859.0136" z="0.0000" type="priority" />
	<node id="3051555166" x="635298.2870" y="4348861.7255" z="0.0000" type="priority" />
	<node id="6040221540" x="635330.9377" y="4349251.2326" z="0.0000" type="priority" />
	<node id="6040221541" x="635327.5325" y="4349189.3809" z="0.0000" type="priority" />
	<node id="3051647599" x="635459.4404" y="4348580.7697" z="0.0000" type="priority" />
	<node id="3049952229" x="635806.5560" y="4348746.8571" z="0.0000" type="priority" />
	<node id="6040221546" x="635337.7444" y="4349182.1308" z="0.0000" type="priority" />
	<node id="3051938495" x="635748.9500" y="4349553.9247" z="0.0000" type="priority" />
	<node id="3049929470" x="635269.1788" y="4348847.5657" z="0.0000" type="priority" />
	<node id="3049952225" x="635812.7815" y="4348737.1847" z="0.0000" type="priority" />
	<node id="3049652740" x="635603.9898" y="4349058.8821" z="0.0000" type="priority" />
	<node id="6040221542" x="635315.1196" y="4349180.7615" z="0.0000" type="priority" />
	<node id="3049952224" x="635874.4982" y="4348723.9931" z="0.0000" type="priority" />
	<node id="6040221543" x="635316.5652" y="4349205.8656" z="0.0000" type="priority" />
	<node id="3051938498" x="635764.3481" y="4349566.4491" z="0.0000" type="priority" />
	<node id="6040221544" x="635322.4079" y="4349182.8862" z="0.0000" type="priority" />
	<node id="6040221545" x="635329.3374" y="4349183.3173" z="0.0000" type="priority" />
	<node id="563003394" x="635832.5193" y="4348938.7047" z="0.0000" type="priority" />
	<node id="3049953751" x="635910.4148" y="4348692.5120" z="0.0000" type="priority" />
	<node id="1114682708" x="635466.4417" y="4348790.3492" z="0.0000" type="priority" />
	<node id="1114682706" x="635441.9112" y="4348800.7810" z="0.0000" type="priority" />
	<node id="3050298359" x="635768.1441" y="4349001.6532" z="0.0000" type="priority" />
	<node id="3050298358" x="635783.2353" y="4348957.4973" z="0.0000" type="priority" />
	<node id="3049667187" x="635735.3332" y="4348949.4367" z="0.0000" type="priority" />
	<node id="6040290552" x="635418.4168" y="4348834.5447" z="0.0000" type="priority" />
	<node id="1114688005" x="635194.2143" y="4348714.6437" z="0.0000" type="priority" />
	<node id="3049953747" x="635829.9195" y="4348676.6005" z="0.0000" type="priority" />
	<node id="1114688004" x="635446.0420" y="4348202.7426" z="0.0000" type="priority" />
	<node id="3049953748" x="635901.9224" y="4348682.2170" z="0.0000" type="priority" />
	<node id="1114688009" x="635228.7430" y="4348648.5645" z="0.0000" type="priority" />
	<node id="1114688007" x="635335.3965" y="4348465.7013" z="0.0000" type="priority" />
	<node id="6040290559" x="635307.2177" y="4348954.7692" z="0.0000" type="priority" />
	<node id="6040290558" x="635307.7626" y="4348958.1758" z="0.0000" type="priority" />
	<node id="6040290557" x="635310.8667" y="4348962.7703" z="0.0000" type="priority" />
	<node id="6040290556" x="635318.6672" y="4348965.2258" z="0.0000" type="priority" />
	<node id="6040290555" x="635307.8286" y="4348951.3826" z="0.0000" type="priority" />
	<node id="1114682719" x="635450.1805" y="4348792.1430" z="0.0000" type="priority" />
	<node id="6040290554" x="635284.8984" y="4348922.2980" z="0.0000" type="priority" />
	<node id="1114682718" x="635367.3627" y="4348902.6901" z="0.0000" type="priority" />
	<node id="563003380" x="635770.0033" y="4348779.2269" z="0.0000" type="priority" />
	<node id="6040290553" x="635254.2278" y="4348881.7999" z="0.0000" type="priority" />
	<node id="1960969728" x="635652.9638" y="4349457.8786" z="0.0000" type="priority" />
	<node id="3049667177" x="635744.0142" y="4348941.9385" z="0.0000" type="priority" />
	<node id="6040290562" x="635321.4141" y="4348945.1458" z="0.0000" type="priority" />
	<node id="6040290561" x="635315.1912" y="4348944.7604" z="0.0000" type="priority" />
	<node id="6040290560" x="635312.0358" y="4348946.1045" z="0.0000" type="priority" />
	<node id="1114682713" x="635476.3526" y="4348793.5187" z="0.0000" type="priority" />
	<node id="563003386" x="635844.3193" y="4348892.3157" z="0.0000" type="priority" />
	<node id="1114682711" x="635352.3990" y="4348923.2131" z="0.0000" type="priority" />
	<node id="563010908" x="635584.2652" y="4349466.0878" z="0.0000" type="priority" />
	<node id="3049680378" x="635386.5027" y="4348721.0078" z="0.0000" type="priority" />
	<node id="3049680379" x="635404.1357" y="4348725.6990" z="0.0000" type="priority" />
	<node id="3049680370" x="635448.7830" y="4348701.6389" z="0.0000" type="priority" />
	<node id="3049680371" x="635681.2640" y="4348711.9608" z="0.0000" type="priority" />
	<node id="1713570090" x="635402.0019" y="4349238.5437" z="0.0000" type="priority" />
	<node id="3049680372" x="635286.6770" y="4348705.7104" z="0.0000" type="priority" />
	<node id="3049680375" x="635393.3465" y="4348718.9395" z="0.0000" type="priority" />
	<node id="3049680376" x="635400.3989" y="4348721.2600" z="0.0000" type="priority" />
	<node id="3049680377" x="635451.8385" y="4348729.9239" z="0.0000" type="priority" />
	<node id="1960969700" x="635878.2332" y="4349631.8121" z="0.0000" type="priority" />
	<node id="1960969702" x="635634.7883" y="4349464.6456" z="0.0000" type="priority" />
	<node id="4309905453" x="635865.4529" y="4349709.7577" z="0.0000" type="priority" />
	<node id="3049680380" x="635382.5746" y="4348724.1148" z="0.0000" type="priority" />
	<node id="3049668053" x="635680.2228" y="4348994.6842" z="0.0000" type="priority" />
	<node id="1761375188" x="635396.3310" y="4348747.3453" z="0.0000" type="priority" />
	<node id="3050509159" x="635688.7682" y="4348721.5389" z="0.0000" type="priority" />
	<node id="3050509158" x="635723.7838" y="4348691.2181" z="0.0000" type="priority" />
	<node id="3050371529" x="635591.8376" y="4348795.4022" z="0.0000" type="priority" />
	<node id="3049615309" x="635283.9493" y="4349031.3013" z="0.0000" type="priority" />
	<node id="1761412196" x="635531.2748" y="4348929.5260" z="0.0000" type="priority" />
	<node id="3050371528" x="635670.9274" y="4348759.5856" z="0.0000" type="priority" />
	<node id="3049615308" x="635295.5360" y="4349006.4676" z="0.0000" type="priority" />
	<node id="1761375185" x="635335.7518" y="4348677.5966" z="0.0000" type="priority" />
	<node id="4962323030" x="635541.5414" y="4348656.3441" z="0.0000" type="priority" />
	<node id="3049615307" x="635308.4169" y="4348979.6580" z="0.0000" type="priority" />
	<node id="4962323031" x="635475.2779" y="4348715.2545" z="0.0000" type="priority" />
	<node id="3049680381" x="635406.8390" y="4348733.5060" z="0.0000" type="priority" />
	<node id="3049680382" x="635405.9222" y="4348740.0957" z="0.0000" type="priority" />
	<node id="3049680383" x="635403.6859" y="4348746.6514" z="0.0000" type="priority" />
	<node id="3049680384" x="635400.2415" y="4348752.7087" z="0.0000" type="priority" />
	<node id="3049680385" x="635395.0275" y="4348759.3127" z="0.0000" type="priority" />
	<node id="3049680386" x="635385.3776" y="4348766.9609" z="0.0000" type="priority" />
	<node id="3049680387" x="635329.5463" y="4348786.1646" z="0.0000" type="priority" />
	<node id="3049680388" x="635344.0049" y="4348795.7742" z="0.0000" type="priority" />
	<node id="3049667198" x="635726.2483" y="4348956.8390" z="0.0000" type="priority" />
	<node id="3049668043" x="635689.5472" y="4348987.3970" z="0.0000" type="priority" />
	<node id="3049615315" x="635264.2764" y="4349188.1287" z="0.0000" type="priority" />
	<node id="3050371530" x="635609.1069" y="4348814.0536" z="0.0000" type="priority" />
	<node id="3049615314" x="635307.8552" y="4349162.3287" z="0.0000" type="priority" />
	<node id="3049615313" x="635238.9634" y="4349142.7387" z="0.0000" type="priority" />
	<node id="4962323029" x="635551.3045" y="4348648.1540" z="0.0000" type="priority" />
	<node id="3049615312" x="635355.8358" y="4349127.0022" z="0.0000" type="priority" />
	<node id="3050371531" x="635545.0965" y="4348870.4601" z="0.0000" type="priority" />
	<node id="3049615311" x="635246.2407" y="4349121.6049" z="0.0000" type="priority" />
	<node id="4962323027" x="635583.7513" y="4348626.1143" z="0.0000" type="priority" />
	<node id="3049615310" x="635258.9332" y="4349088.7192" z="0.0000" type="priority" />
	<node id="4962323028" x="635567.2564" y="4348638.3617" z="0.0000" type="priority" />
	<node id="4962323025" x="635540.2156" y="4348647.2287" z="0.0000" type="priority" />
	<node id="4962323026" x="635527.7996" y="4348652.1644" z="0.0000" type="priority" />
	<node id="3049680356" x="635716.8210" y="4348672.3349" z="0.0000" type="priority" />
	<node id="6040264338" x="635810.4436" y="4348409.8841" z="0.0000" type="priority" />
	<node id="6040264339" x="635779.5229" y="4348448.2692" z="0.0000" type="priority" />
	<node id="3049680358" x="635716.5040" y="4348676.6702" z="0.0000" type="priority" />
	<node id="1761412042" x="635510.9416" y="4348947.2023" z="0.0000" type="priority" />
	<node id="3049680359" x="635499.5558" y="4348672.6786" z="0.0000" type="priority" />
	<node id="6040264337" x="635771.0421" y="4348447.2002" z="0.0000" type="priority" />
	<node id="1713449226" x="635651.0993" y="4349285.2236" z="0.0000" type="priority" />
	<node id="3049680351" x="635428.3278" y="4348647.2625" z="0.0000" type="priority" />
	<node id="1713449227" x="635263.6447" y="4348849.7456" z="0.0000" type="priority" />
	<node id="3049680352" x="635433.6164" y="4348648.2980" z="0.0000" type="priority" />
	<node id="3049680353" x="635524.2156" y="4348638.9243" z="0.0000" type="priority" />
	<node id="1713449221" x="635642.6223" y="4348643.6235" z="0.0000" type="priority" />
	<node id="3049680354" x="635418.8556" y="4348660.0762" z="0.0000" type="priority" />
	<node id="1713449231" x="635574.3071" y="4349315.7291" z="0.0000" type="priority" />
	<node id="1960969642" x="635634.5147" y="4349468.4709" z="0.0000" type="priority" />
	<node id="1114687994" x="635291.5792" y="4348532.9180" z="0.0000" type="priority" />
	<node id="562964356" x="635320.4499" y="4349564.9325" z="0.0000" type="priority" />
	<node id="1114687995" x="635499.8721" y="4347911.8214" z="0.0000" type="priority" />
	<node id="562964352" x="635344.2712" y="4349539.5340" z="0.0000" type="priority" />
	<node id="563003078" x="635305.3315" y="4349062.5573" z="0.0000" type="priority" />
	<node id="562964350" x="635351.5490" y="4349512.9048" z="0.0000" type="priority" />
	<node id="3049680367" x="635408.1779" y="4348685.6804" z="0.0000" type="priority" />
	<node id="3049680368" x="635491.5805" y="4348688.7266" z="0.0000" type="priority" />
	<node id="3049680369" x="635453.4109" y="4348691.0282" z="0.0000" type="priority" />
	<node id="4703941603" x="635867.1055" y="4348404.1647" z="0.0000" type="priority" />
	<node id="6040264345" x="635499.0342" y="4348655.5061" z="0.0000" type="priority" />
	<node id="6040264346" x="635503.0094" y="4348659.6273" z="0.0000" type="priority" />
	<node id="1713449218" x="635590.9745" y="4349282.5578" z="0.0000" type="priority" />
	<node id="6040264343" x="635762.5138" y="4348495.9887" z="0.0000" type="priority" />
	<node id="6040264344" x="635785.5728" y="4348469.5345" z="0.0000" type="priority" />
	<node id="6040264341" x="635909.2493" y="4348331.8040" z="0.0000" type="priority" />
	<node id="1713449215" x="635452.3446" y="4349289.3202" z="0.0000" type="priority" />
	<node id="3049680360" x="635714.7646" y="4348681.9244" z="0.0000" type="priority" />
	<node id="6040264342" x="635697.3913" y="4348546.1689" z="0.0000" type="priority" />
	<node id="3049680361" x="635412.8455" y="4348675.7587" z="0.0000" type="priority" />
	<node id="1713449217" x="635739.6857" y="4348888.6965" z="0.0000" type="priority" />
	<node id="1713449216" x="635560.3320" y="4348890.9523" z="0.0000" type="priority" />
	<node id="3049680363" x="635496.2734" y="4348682.3246" z="0.0000" type="priority" />
	<node id="3049680365" x="635456.0617" y="4348673.5223" z="0.0000" type="priority" />
	<node id="1713449212" x="635393.5162" y="4349406.3671" z="0.0000" type="priority" />
	<node id="1713449220" x="635498.5580" y="4349207.2030" z="0.0000" type="priority" />
	<node id="1960969657" x="635772.3753" y="4349588.5594" z="0.0000" type="priority" />
	<node id="3050612798" x="635849.8545" y="4348372.0466" z="0.0000" type="priority" />
	<node id="562964342" x="635339.6734" y="4349449.9624" z="0.0000" type="priority" />
	<node id="563010865" x="635571.6100" y="4349435.7042" z="0.0000" type="priority" />
	<node id="3049680335" x="635376.9254" y="4348620.0040" z="0.0000" type="priority" />
	<node id="3049680336" x="635546.2504" y="4348624.6747" z="0.0000" type="priority" />
	<node id="1761412263" x="635404.3358" y="4348951.3801" z="0.0000" type="priority" />
	<node id="1713449208" x="635609.2462" y="4349066.2230" z="0.0000" type="priority" />
	<node id="1112481000" x="635240.3365" y="4348875.8084" z="0.0000" type="priority" />
	<node id="3049680339" x="635515.4844" y="4348619.9884" z="0.0000" type="priority" />
	<node id="562964338" x="635335.1941" y="4349382.3967" z="0.0000" type="priority" />
	<node id="1713449207" x="635670.8345" y="4349201.6701" z="0.0000" type="priority" />
	<node id="1112481003" x="635315.8649" y="4348965.1217" z="0.0000" type="priority" />
	<node id="1112481002" x="635265.8882" y="4348896.0347" z="0.0000" type="priority" />
	<node id="1761412266" x="635501.7475" y="4348895.8077" z="0.0000" type="priority" />
	<node id="1112481004" x="635327.0863" y="4348959.3768" z="0.0000" type="priority" />
	<node id="1112481007" x="635309.4939" y="4348948.3918" z="0.0000" type="priority" />
	<node id="1713449206" x="635518.5856" y="4349230.9312" z="0.0000" type="priority" />
	<node id="3051572456" x="635373.1247" y="4349159.9303" z="0.0000" type="priority" />
	<node id="1713449200" x="635492.5887" y="4349266.2610" z="0.0000" type="priority" />
	<node id="3049680333" x="635492.7893" y="4348612.6335" z="0.0000" type="priority" />
	<node id="3049667167" x="635754.5030" y="4348933.1951" z="0.0000" type="priority" />
	<node id="3051572447" x="635390.6265" y="4349143.7811" z="0.0000" type="priority" />
	<node id="1114687972" x="635492.8063" y="4347955.4732" z="0.0000" type="priority" />
	<node id="1761412030" x="635734.5748" y="4349009.4067" z="0.0000" type="priority" />
	<node id="3049680345" x="635535.9611" y="4348628.3817" z="0.0000" type="priority" />
	<node id="3049680349" x="635425.8111" y="4348640.1359" z="0.0000" type="priority" />
	<node id="563010858" x="635600.9360" y="4349404.4070" z="0.0000" type="priority" />
	<node id="562964327" x="635333.0452" y="4349284.4303" z="0.0000" type="priority" />
	<node id="1114687991" x="635449.7419" y="4348171.0334" z="0.0000" type="priority" />
	<node id="1761412035" x="635465.1234" y="4349026.3510" z="0.0000" type="priority" />
	<node id="3050345198" x="635630.0067" y="4348868.0719" z="0.0000" type="priority" />
	<node id="6040163965" x="635280.2455" y="4349227.0287" z="0.0000" type="priority" />
	<node id="3050345199" x="635620.6129" y="4348874.3810" z="0.0000" type="priority" />
	<node id="3049680340" x="635442.7971" y="4348623.9445" z="0.0000" type="priority" />
	<node id="3049680342" x="635411.9691" y="4348634.2671" z="0.0000" type="priority" />
	<node id="3050442976" x="635567.3178" y="4348955.2089" z="0.0000" type="priority" />
	<node id="1960969628" x="635655.9489" y="4349473.7617" z="0.0000" type="priority" />
	<node id="3050345197" x="635639.0994" y="4348866.6757" z="0.0000" type="priority" />
	<node id="3049667158" x="635684.2628" y="4348895.3153" z="0.0000" type="priority" />
	<node id="3049667157" x="635678.9665" y="4348889.2726" z="0.0000" type="priority" />
	<node id="3049667156" x="635717.4387" y="4348866.0504" z="0.0000" type="priority" />
	<node id="3049667155" x="635656.3146" y="4348649.6566" z="0.0000" type="priority" />
	<node id="3049667154" x="635645.6985" y="4348648.8282" z="0.0000" type="priority" />
	<node id="1960969631" x="635873.9629" y="4349623.8665" z="0.0000" type="priority" />
	<node id="1114687983" x="635433.3765" y="4348269.7665" z="0.0000" type="priority" />
	<node id="562964323" x="635328.5652" y="4349221.8716" z="0.0000" type="priority" />
	<node id="562964321" x="635303.2210" y="4349145.9619" z="0.0000" type="priority" />
	<node id="1114687988" x="635296.0133" y="4348523.0255" z="0.0000" type="priority" />
	<node id="1114687986" x="635176.9869" y="4348751.2921" z="0.0000" type="priority" />