<edges>
	<edge id="159252246_3050050509_3050050512_3050050509" from="3050050509" to="3050050512" numLanes="1" speed="8.33" />
	<edge id="300879092_563003078_3049711939_563003078" from="563003078" to="3049711939" numLanes="2" speed="16.67" />
	<edge id="300982204_1713449179_3050925370_1713449179" from="1713449179" to="3050925371" numLanes="1" speed="5.56" />
	<edge id="300982204_1713449179_3050925370_3050925371" from="3050925371" to="3050925370" numLanes="1" speed="5.56" />
	<edge id="301050124_1713449183_1713449320_1713449183" from="1713449183" to="1713449320" numLanes="1" speed="8.33" />
	<edge id="300947025_3050537363_3050537342_3050537363" from="3050537363" to="3050537365" numLanes="1" speed="8.33" />
	<edge id="300947025_3050537363_3050537342_3050537365" from="3050537365" to="3050537364" numLanes="1" speed="8.33" />
	<edge id="300947025_3050537363_3050537342_3050537364" from="3050537364" to="3050537362" numLanes="1" speed="8.33" />
	<edge id="300947025_3050537363_3050537342_3050537362" from="3050537362" to="3050537360" numLanes="1" speed="8.33" />
	<edge id="300947025_3050537363_3050537342_3050537360" from="3050537360" to="3050537357" numLanes="1" speed="8.33" />
	<edge id="300947025_3050537363_3050537342_3050537357" from="3050537357" to="3050537354" numLanes="1" speed="8.33" />
	<edge id="300947025_3050537363_3050537342_3050537354" from="3050537354" to="3050537352" numLanes="1" speed="8.33" />
	<edge id="300947025_3050537363_3050537342_3050537352" from="3050537352" to="3050537350" numLanes="1" speed="8.33" />
	<edge id="300947025_3050537363_3050537342_3050537350" from="3050537350" to="3050537346" numLanes="1" speed="8.33" />
	<edge id="300947025_3050537363_3050537342_3050537346" from="3050537346" to="3050537344" numLanes="1" speed="8.33" />
	<edge id="300947025_3050537363_3050537342_3050537344" from="3050537344" to="3050537342" numLanes="1" speed="8.33" />
	<edge id="159252241_1713449196_1713449231_1713449196" from="1713449196" to="1713449231" numLanes="1" speed="8.33" />
	<edge id="159252287_1713449147_1713449159_1713449147" from="1713449147" to="1713449159" numLanes="1" speed="8.33" />
	<edge id="823981547_7693168866_7693168874_7693168866" from="7693168866" to="7693168874" numLanes="1" speed="8.33" />
	<edge id="300900782_3050033641_3049643482_3050033641" from="3050033641" to="3049643482" numLanes="1" speed="8.33" />
	<edge id="300876517_7693168858_3049680360_7693168858" from="7693168858" to="3049680360" numLanes="1" speed="5.56" />
	<edge id="159252259_1713449274_1960969791_1713449274" from="1713449274" to="563003540" numLanes="1" speed="8.33" />
	<edge id="159252259_1713449274_1960969791_563003540" from="563003540" to="1960969791" numLanes="1" speed="8.33" />
	<edge id="165081927_1761374860_1761374836_1761374860" from="1761374860" to="1761374836" numLanes="1" speed="5.56" />
	<edge id="300978235_3050882386_3050882400_3050882386" from="3050882386" to="3050882387" numLanes="1" speed="5.56" />
	<edge id="300978235_3050882386_3050882400_3050882387" from="3050882387" to="3050882396" numLanes="1" speed="5.56" />
	<edge id="300978235_3050882386_3050882400_3050882396" from="3050882396" to="3050882399" numLanes="1" speed="5.56" />
	<edge id="300978235_3050882386_3050882400_3050882399" from="3050882399" to="3050882400" numLanes="1" speed="5.56" />
	<edge id="300900779_3049667167_3050033634_3049667167" from="3049667167" to="3050033634" numLanes="1" speed="8.33" />
	<edge id="300876521_3049680333_4962322796_3049680333" from="3049680333" to="4962322796" numLanes="1" speed="5.56" />
	<edge id="159252763_1761412035_563003314_1761412035" from="1761412035" to="563003330" numLanes="1" speed="8.33" />
	<edge id="159252763_1761412035_563003314_563003330" from="563003330" to="3050916871" numLanes="1" speed="8.33" />
	<edge id="159252763_1761412035_563003314_3050916871" from="3050916871" to="563003323" numLanes="1" speed="8.33" />
	<edge id="159252763_1761412035_563003314_563003323" from="563003323" to="1961268811" numLanes="1" speed="8.33" />
	<edge id="159252763_1761412035_563003314_1961268811" from="1961268811" to="563003314" numLanes="1" speed="8.33" />
	<edge id="300947025_3050537363_3050537349_3050537363" from="3050537363" to="3050537361" numLanes="1" speed="8.33" />
	<edge id="300947025_3050537363_3050537349_3050537361" from="3050537361" to="3050537358" numLanes="1" speed="8.33" />
	<edge id="300947025_3050537363_3050537349_3050537358" from="3050537358" to="3050537355" numLanes="1" speed="8.33" />
	<edge id="300947025_3050537363_3050537349_3050537355" from="3050537355" to="3050537353" numLanes="1" speed="8.33" />
	<edge id="300947025_3050537363_3050537349_3050537353" from="3050537353" to="3050537351" numLanes="1" speed="8.33" />
	<edge id="300947025_3050537363_3050537349_3050537351" from="3050537351" to="3050537349" numLanes="1" speed="8.33" />
	<edge id="506510886_4962322803_4962322802_4962322803" from="4962322803" to="6040264346" numLanes="2" speed="18.06" />
	<edge id="506510886_4962322803_4962322802_6040264346" from="6040264346" to="4962322805" numLanes="2" speed="18.06" />
	<edge id="506510886_4962322803_4962322802_4962322805" from="4962322805" to="4962322806" numLanes="2" speed="18.06" />
	<edge id="506510886_4962322803_4962322802_4962322806" from="4962322806" to="4962322802" numLanes="2" speed="18.06" />
	<edge id="159252276_3050474155_1713449163_3050474155" from="3050474155" to="1713449163" numLanes="1" speed="8.33" />
	<edge id="300929757_1713449163_1713449347_1713449163" from="1713449163" to="1114682713" numLanes="1" speed="8.33" />
	<edge id="300929757_1713449163_1713449347_1114682713" from="1114682713" to="1713449347" numLanes="1" speed="8.33" />
	<edge id="300900784_3049667220_3050033651_3049667220" from="3049667220" to="3050033651" numLanes="1" speed="8.33" />
	<edge id="301082538_3051910265_3051910266_3051910265" from="3051910265" to="3051910266" numLanes="1" speed="8.33" />
	<edge id="300875491_3049667158_1713449180_3049667158" from="3049667158" to="3049667156" numLanes="1" speed="5.56" />
	<edge id="300875491_3049667158_1713449180_3049667156" from="3049667156" to="1713449180" numLanes="1" speed="5.56" />
	<edge id="300982202_3050925367_1713449181_3050925367" from="3050925367" to="3051003028" numLanes="1" speed="8.33" />
	<edge id="300982202_3050925367_1713449181_3051003028" from="3051003028" to="1713449181" numLanes="1" speed="8.33" />
	<edge id="301085774_3049624812_3049624807_3049624812" from="3049624812" to="3049624808" numLanes="2" speed="8.33" />
	<edge id="301085774_3049624812_3049624807_3049624808" from="3049624808" to="3049624807" numLanes="2" speed="8.33" />
	<edge id="300900773_3049668053_3050033659_3049668053" from="3049668053" to="3050033659" numLanes="1" speed="8.33" />
	<edge id="159252767_6040221530_6040221505_6040221530" from="6040221530" to="6040163965" numLanes="1" speed="8.33" />
	<edge id="159252767_6040221530_6040221505_6040163965" from="6040163965" to="1713456451" numLanes="1" speed="8.33" />
	<edge id="159252767_6040221530_6040221505_1713456451" from="1713456451" to="1713456458" numLanes="1" speed="8.33" />
	<edge id="159252767_6040221530_6040221505_1713456458" from="1713456458" to="1713456480" numLanes="1" speed="8.33" />
	<edge id="159252767_6040221530_6040221505_1713456480" from="1713456480" to="1713456571" numLanes="1" speed="8.33" />
	<edge id="159252767_6040221530_6040221505_1713456571" from="1713456571" to="1713456421" numLanes="1" speed="8.33" />
	<edge id="159252767_6040221530_6040221505_1713456421" from="1713456421" to="1713456533" numLanes="1" speed="8.33" />
	<edge id="159252767_6040221530_6040221505_1713456533" from="1713456533" to="1713456558" numLanes="1" speed="8.33" />
	<edge id="159252767_6040221530_6040221505_1713456558" from="1713456558" to="1713456466" numLanes="1" speed="8.33" />
	<edge id="159252767_6040221530_6040221505_1713456466" from="1713456466" to="6040163964" numLanes="1" speed="8.33" />
	<edge id="159252767_6040221530_6040221505_6040163964" from="6040163964" to="1713456432" numLanes="1" speed="8.33" />
	<edge id="159252767_6040221530_6040221505_1713456432" from="1713456432" to="6040163963" numLanes="1" speed="8.33" />
	<edge id="159252767_6040221530_6040221505_6040163963" from="6040163963" to="6040163962" numLanes="1" speed="8.33" />
	<edge id="159252767_6040221530_6040221505_6040163962" from="6040163962" to="6040221505" numLanes="1" speed="8.33" />
	<edge id="159252271_563003380_1713449345_563003380" from="563003380" to="1713449345" numLanes="1" speed="8.33" />
	<edge id="300902960_3050048745_3050048739_3050048745" from="3050048745" to="3050048739" numLanes="1" speed="8.33" />
	<edge id="165081927_1761374681_1761375365_1761374681" from="1761374681" to="1761375365" numLanes="1" speed="5.56" />
	<edge id="300879266_3050882395_1713449163_3050882395" from="3050882395" to="6040290552" numLanes="1" speed="8.33" />
	<edge id="300879266_3050882395_1713449163_6040290552" from="6040290552" to="1114682706" numLanes="1" speed="8.33" />
	<edge id="300879266_3050882395_1713449163_1114682706" from="1114682706" to="1114682719" numLanes="1" speed="8.33" />
	<edge id="300879266_3050882395_1713449163_1114682719" from="1114682719" to="1114682722" numLanes="1" speed="8.33" />
	<edge id="300879266_3050882395_1713449163_1114682722" from="1114682722" to="1114682708" numLanes="1" speed="8.33" />
	<edge id="300879266_3050882395_1713449163_1114682708" from="1114682708" to="1713449163" numLanes="1" speed="8.33" />
	<edge id="165081927_1761375218_1761374874_1761375218" from="1761375218" to="1761374874" numLanes="1" speed="5.56" />
	<edge id="301050124_1713449320_3051604196_1713449320" from="1713449320" to="3051604196" numLanes="1" speed="8.33" />
	<edge id="300988281_3050980363_3050980362_3050980363" from="3050980363" to="3050980362" numLanes="1" speed="8.33" />
	<edge id="300900777_3050033657_3049668043_3050033657" from="3050033657" to="3049668043" numLanes="1" speed="8.33" />
	<edge id="300990271_3051003029_3051003030_3051003029" from="3051003029" to="3051003030" numLanes="1" speed="8.33" />
	<edge id="165081927_3051910262_1761374814_3051910262" from="3051910262" to="1761374814" numLanes="1" speed="5.56" />
	<edge id="300928020_3050326244_3050326247_3050326244" from="3050326244" to="3050326247" numLanes="1" speed="8.33" />
	<edge id="300876526_3049680367_3049680361_3049680367" from="3049680367" to="3049680361" numLanes="1" speed="5.56" />
	<edge id="301048030_3051586895_3051586880_3051586895" from="3051586895" to="3051586880" numLanes="1" speed="5.56" />
	<edge id="300926670_3050286463_1761411971_3050286463" from="3050286463" to="1761411971" numLanes="1" speed="8.33" />
	<edge id="159252258_3049669244_1713449111_3049669244" from="3049669244" to="1713449111" numLanes="1" speed="8.33" />
	<edge id="300893933_1713449273_3049952229_1713449273" from="1713449273" to="3049952833" numLanes="1" speed="5.56" />
	<edge id="300893933_1713449273_3049952229_3049952833" from="3049952833" to="3049952229" numLanes="1" speed="5.56" />
	<edge id="164506677_1761374945_1761374814_1761374945" from="1761374945" to="1761374814" numLanes="1" speed="5.56" />
	<edge id="164511359_1761411715_1761411868_1761411715" from="1761411715" to="1761411868" numLanes="1" speed="8.33" />
	<edge id="159252763_563003380_1713449117_563003380" from="563003380" to="563003371" numLanes="1" speed="8.33" />
	<edge id="159252763_563003380_1713449117_563003371" from="563003371" to="1713449117" numLanes="1" speed="8.33" />
	<edge id="165081929_1761374675_1761374773_1761374675" from="1761374675" to="1761374773" numLanes="1" speed="5.56" />
	<edge id="300902963_3050048764_3050048767_3050048764" from="3050048764" to="3050048767" numLanes="1" speed="8.33" />
	<edge id="159252246_1713449217_3050050523_1713449217" from="1713449217" to="3050050523" numLanes="1" speed="8.33" />
	<edge id="300876526_3049680367_3049680369_3049680367" from="3049680367" to="3049680370" numLanes="1" speed="5.56" />
	<edge id="300876526_3049680367_3049680369_3049680370" from="3049680370" to="3049680369" numLanes="1" speed="5.56" />
	<edge id="159252246_3050048758_3050040922_3050048758" from="3050048758" to="3050040922" numLanes="1" speed="8.33" />
	<edge id="185306860_1958716085_1958716074_1958716085" from="1958716085" to="1958716074" numLanes="1" speed="5.56" />
	<edge id="185306860_1958716085_1958716073_1958716085" from="1958716085" to="1958716073" numLanes="1" speed="5.56" />
	<edge id="159252246_3050048758_3050040924_3050048758" from="3050048758" to="3050040924" numLanes="1" speed="8.33" />
	<edge id="185306860_1958716085_1958716071_1958716085" from="1958716085" to="1958716071" numLanes="1" speed="5.56" />
	<edge id="300876520_3049675732_4962322796_3049675732" from="3049675732" to="3049680339" numLanes="1" speed="5.56" />
	<edge id="300876520_3049675732_4962322796_3049680339" from="3049680339" to="3049680345" numLanes="1" speed="5.56" />
	<edge id="300876520_3049675732_4962322796_3049680345" from="3049680345" to="3049680353" numLanes="1" speed="5.56" />
	<edge id="300876520_3049675732_4962322796_3049680353" from="3049680353" to="4962322796" numLanes="1" speed="5.56" />
	<edge id="300875308_563003471_1713449123_563003471" from="563003471" to="563003463" numLanes="1" speed="8.33" />
	<edge id="300875308_563003471_1713449123_563003463" from="563003463" to="563003453" numLanes="1" speed="8.33" />
	<edge id="300875308_563003471_1713449123_563003453" from="563003453" to="1713449123" numLanes="1" speed="8.33" />
	<edge id="300898062_3050001455_3050001477_3050001455" from="3050001455" to="3050001456" numLanes="1" speed="8.33" />
	<edge id="300898062_3050001455_3050001477_3050001456" from="3050001456" to="3050001457" numLanes="1" speed="8.33" />
	<edge id="300898062_3050001455_3050001477_3050001457" from="3050001457" to="3050001458" numLanes="1" speed="8.33" />
	<edge id="300898062_3050001455_3050001477_3050001458" from="3050001458" to="3050001459" numLanes="1" speed="8.33" />
	<edge id="300898062_3050001455_3050001477_3050001459" from="3050001459" to="3050001469" numLanes="1" speed="8.33" />
	<edge id="300898062_3050001455_3050001477_3050001469" from="3050001469" to="3050001475" numLanes="1" speed="8.33" />
	<edge id="300898062_3050001455_3050001477_3050001475" from="3050001475" to="3050001477" numLanes="1" speed="8.33" />
	<edge id="159252271_563003380_1713449368_563003380" from="563003380" to="3050399649" numLanes="1" speed="8.33" />
	<edge id="159252271_563003380_1713449368_3050399649" from="3050399649" to="1713449368" numLanes="1" speed="8.33" />
	<edge id="159252763_3050343745_1713449149_3050343745" from="3050343745" to="3050442976" numLanes="1" speed="8.33" />
	<edge id="159252763_3050343745_1713449149_3050442976" from="3050442976" to="1713449149" numLanes="1" speed="8.33" />
	<edge id="301045500_3051555168_3051555166_3051555168" from="3051555168" to="3051555166" numLanes="1" speed="5.56" />
	<edge id="300925768_3050286464_3050286463_3050286464" from="3050286464" to="3050286463" numLanes="1" speed="8.33" />
	<edge id="300876521_4962322796_4962322801_4962322796" from="4962322796" to="4962322801" numLanes="1" speed="5.56" />
	<edge id="159252233_1713449123_1761411970_1713449123" from="1713449123" to="1761411970" numLanes="1" speed="8.33" />
	<edge id="159252241_1713449138_1713449134_1713449138" from="1713449138" to="1713449134" numLanes="1" speed="8.33" />
	<edge id="300947027_3050537349_3050537338_3050537349" from="3050537349" to="3050537348" numLanes="1" speed="8.33" />
	<edge id="300947027_3050537349_3050537338_3050537348" from="3050537348" to="3050537338" numLanes="1" speed="8.33" />
	<edge id="300876517_3049680360_7693168858_3049680360" from="3049680360" to="7693168858" numLanes="1" speed="5.56" />
	<edge id="165081933_1761375288_1761375185_1761375288" from="1761375288" to="1761375185" numLanes="1" speed="5.56" />
	<edge id="164511336_1761411929_1761411381_1761411929" from="1761411929" to="1761411381" numLanes="2" speed="8.33" />
	<edge id="823981545_7693168857_7693168876_7693168857" from="7693168857" to="7693168856" numLanes="1" speed="4.17" />
	<edge id="823981545_7693168857_7693168876_7693168856" from="7693168856" to="7693168876" numLanes="1" speed="4.17" />
	<edge id="159252760_1713456492_1713456620_1713456492" from="1713456492" to="6040221543" numLanes="2" speed="16.67" />
	<edge id="159252760_1713456492_1713456620_6040221543" from="6040221543" to="1713456620" numLanes="2" speed="16.67" />
	<edge id="159252246_3050048785_3050040932_3050048785" from="3050048785" to="3050040932" numLanes="1" speed="8.33" />
	<edge id="159252241_1713449231_1713449196_1713449231" from="1713449231" to="1713449196" numLanes="1" speed="8.33" />
	<edge id="301050124_3051604196_1713449320_3051604196" from="3051604196" to="1713449320" numLanes="1" speed="8.33" />
	<edge id="300879542_3049717239_3049717242_3049717239" from="3049717239" to="3049717237" numLanes="1" speed="5.56" />
	<edge id="300879542_3049717239_3049717242_3049717237" from="3049717237" to="3049717238" numLanes="1" speed="5.56" />
	<edge id="300879542_3049717239_3049717242_3049717238" from="3049717238" to="3049717240" numLanes="1" speed="5.56" />
	<edge id="300879542_3049717239_3049717242_3049717240" from="3049717240" to="3049717242" numLanes="1" speed="5.56" />
	<edge id="159252246_3050048745_3050040920_3050048745" from="3050048745" to="3050040920" numLanes="1" speed="8.33" />
	<edge id="300918282_3051555177_1112481002_3051555177" from="3051555177" to="1112481002" numLanes="2" speed="16.67" />
	<edge id="159252258_3049669244_1713449147_3049669244" from="3049669244" to="1713449147" numLanes="1" speed="8.33" />
	<edge id="300892257_1112481056_958731940_1112481056" from="1112481056" to="3049929468" numLanes="1" speed="25.00" />
	<edge id="300892257_1112481056_958731940_3049929468" from="3049929468" to="3049929467" numLanes="1" speed="25.00" />
	<edge id="300892257_1112481056_958731940_3049929467" from="3049929467" to="3049929465" numLanes="1" speed="25.00" />
	<edge id="300892257_1112481056_958731940_3049929465" from="3049929465" to="958731940" numLanes="1" speed="25.00" />
	<edge id="300876519_3049680351_3049680354_3049680351" from="3049680351" to="3049680354" numLanes="1" speed="5.56" />
	<edge id="300878786_3049707647_3049707646_3049707647" from="3049707647" to="3049707646" numLanes="1" speed="5.56" />
	<edge id="165081927_1761374860_1761374801_1761374860" from="1761374860" to="1761374801" numLanes="1" speed="5.56" />
	<edge id="300901775_3050040923_3050040922_3050040923" from="3050040923" to="3050040922" numLanes="1" speed="8.33" />
	<edge id="159252258_1713449111_3049669244_1713449111" from="1713449111" to="3049669244" numLanes="1" speed="8.33" />
	<edge id="300903711_3050050508_3050050509_3050050508" from="3050050508" to="3050050509" numLanes="1" speed="8.33" />
	<edge id="300982203_1713449296_3050925368_1713449296" from="1713449296" to="3050925368" numLanes="1" speed="5.56" />
	<edge id="300876526_3049680354_3049680361_3049680354" from="3049680354" to="3049680361" numLanes="1" speed="5.56" />
	<edge id="159252246_3050050512_3050050515_3050050512" from="3050050512" to="3050050515" numLanes="1" speed="8.33" />
	<edge id="159252241_1713449206_3049707647_1713449206" from="1713449206" to="3049707647" numLanes="1" speed="8.33" />
	<edge id="159252763_1713449149_1761411381_1713449149" from="1713449149" to="563003356" numLanes="1" speed="8.33" />
	<edge id="159252763_1713449149_1761411381_563003356" from="563003356" to="3050874053" numLanes="1" speed="8.33" />
	<edge id="159252763_1713449149_1761411381_3050874053" from="3050874053" to="3050874059" numLanes="1" speed="8.33" />
	<edge id="159252763_1713449149_1761411381_3050874059" from="3050874059" to="1761411381" numLanes="1" speed="8.33" />
	<edge id="300876598_958731816_7693168851_958731816" from="958731816" to="6040264342" numLanes="1" speed="5.56" />
	<edge id="300876598_958731816_7693168851_6040264342" from="6040264342" to="7693168851" numLanes="1" speed="5.56" />
	<edge id="301082541_3051910262_3051910263_3051910262" from="3051910262" to="3051910259" numLanes="1" speed="8.33" />
	<edge id="301082541_3051910262_3051910263_3051910259" from="3051910259" to="3051910260" numLanes="1" speed="8.33" />
	<edge id="301082541_3051910262_3051910263_3051910260" from="3051910260" to="3051910261" numLanes="1" speed="8.33" />
	<edge id="301082541_3051910262_3051910263_3051910261" from="3051910261" to="3051910264" numLanes="1" speed="8.33" />
	<edge id="301082541_3051910262_3051910263_3051910264" from="3051910264" to="3051910263" numLanes="1" speed="8.33" />
	<edge id="164506673_1761375218_1761374860_1761375218" from="1761375218" to="1761374860" numLanes="1" speed="5.56" />
	<edge id="300876807_3049952224_3050326242_3049952224" from="3049952224" to="3050326242" numLanes="1" speed="8.33" />
	<edge id="300954533_1114708792_3050001480_1114708792" from="1114708792" to="1114687995" numLanes="1" speed="8.33" />
	<edge id="300954533_1114708792_3050001480_1114687995" from="1114687995" to="1114687965" numLanes="1" speed="8.33" />
	<edge id="300954533_1114708792_3050001480_1114687965" from="1114687965" to="1114687972" numLanes="1" speed="8.33" />
	<edge id="300954533_1114708792_3050001480_1114687972" from="1114687972" to="1114687946" numLanes="1" speed="8.33" />
	<edge id="300954533_1114708792_3050001480_1114687946" from="1114687946" to="1114687951" numLanes="1" speed="8.33" />
	<edge id="300954533_1114708792_3050001480_1114687951" from="1114687951" to="1114687923" numLanes="1" speed="8.33" />
	<edge id="300954533_1114708792_3050001480_1114687923" from="1114687923" to="1114687928" numLanes="1" speed="8.33" />
	<edge id="300954533_1114708792_3050001480_1114687928" from="1114687928" to="1114687902" numLanes="1" speed="8.33" />
	<edge id="300954533_1114708792_3050001480_1114687902" from="1114687902" to="1114687919" numLanes="1" speed="8.33" />
	<edge id="300954533_1114708792_3050001480_1114687919" from="1114687919" to="1114687991" numLanes="1" speed="8.33" />
	<edge id="300954533_1114708792_3050001480_1114687991" from="1114687991" to="1114688004" numLanes="1" speed="8.33" />
	<edge id="300954533_1114708792_3050001480_1114688004" from="1114688004" to="1114687966" numLanes="1" speed="8.33" />
	<edge id="300954533_1114708792_3050001480_1114687966" from="1114687966" to="1114687983" numLanes="1" speed="8.33" />
	<edge id="300954533_1114708792_3050001480_1114687983" from="1114687983" to="1114687947" numLanes="1" speed="8.33" />
	<edge id="300954533_1114708792_3050001480_1114687947" from="1114687947" to="1114687960" numLanes="1" speed="8.33" />
	<edge id="300954533_1114708792_3050001480_1114687960" from="1114687960" to="1114687943" numLanes="1" speed="8.33" />
	<edge id="300954533_1114708792_3050001480_1114687943" from="1114687943" to="1114687948" numLanes="1" speed="8.33" />
	<edge id="300954533_1114708792_3050001480_1114687948" from="1114687948" to="1114687920" numLanes="1" speed="8.33" />
	<edge id="300954533_1114708792_3050001480_1114687920" from="1114687920" to="1114687925" numLanes="1" speed="8.33" />
	<edge id="300954533_1114708792_3050001480_1114687925" from="1114687925" to="1114688007" numLanes="1" speed="8.33" />
	<edge id="300954533_1114708792_3050001480_1114688007" from="1114688007" to="3050001480" numLanes="1" speed="8.33" />
	<edge id="300876524_1713449368_3049680360_1713449368" from="1713449368" to="3049680360" numLanes="1" speed="5.56" />
	<edge id="301045410_3051555172_3051555178_3051555172" from="3051555172" to="3051555171" numLanes="1" speed="5.56" />
	<edge id="301045410_3051555172_3051555178_3051555171" from="3051555171" to="3051555178" numLanes="1" speed="5.56" />
	<edge id="300876524_1713449368_3050509159_1713449368" from="1713449368" to="3049680371" numLanes="1" speed="5.56" />
	<edge id="300876524_1713449368_3050509159_3049680371" from="3049680371" to="3050509159" numLanes="1" speed="5.56" />
	<edge id="159252246_3050050512_3050050509_3050050512" from="3050050512" to="3050050509" numLanes="1" speed="8.33" />
	<edge id="159252774_3049717236_6040221540_3049717236" from="3049717236" to="6040221540" numLanes="1" speed="16.67" />
	<edge id="300902961_3050048795_3050048794_3050048795" from="3050048795" to="3050048794" numLanes="1" speed="8.33" />
	<edge id="301041247_3051507500_1761374681_3051507500" from="3051507500" to="3049680372" numLanes="1" speed="5.56" />
	<edge id="301041247_3051507500_1761374681_3049680372" from="3049680372" to="1761374681" numLanes="1" speed="5.56" />
	<edge id="96173294_4962322802_4962323023_4962322802" from="4962322802" to="4962323026" numLanes="2" speed="25.00" />
	<edge id="96173294_4962322802_4962323023_4962323026" from="4962323026" to="4962323025" numLanes="2" speed="25.00" />
	<edge id="96173294_4962322802_4962323023_4962323025" from="4962323025" to="4962323024" numLanes="2" speed="25.00" />
	<edge id="96173294_4962322802_4962323023_4962323024" from="4962323024" to="4962323023" numLanes="2" speed="25.00" />
	<edge id="159252246_3050048745_1713449217_3050048745" from="3050048745" to="1713449217" numLanes="1" speed="8.33" />
	<edge id="300902962_3050048758_3050048752_3050048758" from="3050048758" to="3050048752" numLanes="1" speed="8.33" />
	<edge id="301082540_3051910263_3049680367_3051910263" from="3051910263" to="3051910258" numLanes="1" speed="8.33" />
	<edge id="301082540_3051910263_3049680367_3051910258" from="3051910258" to="3051910257" numLanes="1" speed="8.33" />
	<edge id="301082540_3051910263_3049680367_3051910257" from="3051910257" to="3049680367" numLanes="1" speed="8.33" />
	<edge id="159252264_1713449181_1713449274_1713449181" from="1713449181" to="1713449226" numLanes="2" speed="8.33" />
	<edge id="159252264_1713449181_1713449274_1713449226" from="1713449226" to="1713449274" numLanes="2" speed="8.33" />
	<edge id="301045502_3051541103_1112481002_3051541103" from="3051541103" to="1112481002" numLanes="1" speed="5.56" />
	<edge id="159252259_3049652740_1713449176_3049652740" from="3049652740" to="1713449208" numLanes="1" speed="8.33" />
	<edge id="159252259_3049652740_1713449176_1713449208" from="1713449208" to="1713449176" numLanes="1" speed="8.33" />
	<edge id="300894020_3049953751_3049952832_3049953751" from="3049953751" to="3049953748" numLanes="1" speed="5.56" />
	<edge id="300894020_3049953751_3049952832_3049953748" from="3049953748" to="3049952832" numLanes="1" speed="5.56" />
	<edge id="159252760_1713456620_6040221521_1713456620" from="1713456620" to="1713456428" numLanes="2" speed="16.67" />
	<edge id="159252760_1713456620_6040221521_1713456428" from="1713456428" to="1713456376" numLanes="2" speed="16.67" />
	<edge id="159252760_1713456620_6040221521_1713456376" from="1713456376" to="1713456416" numLanes="2" speed="16.67" />
	<edge id="159252760_1713456620_6040221521_1713456416" from="1713456416" to="1713456490" numLanes="2" speed="16.67" />
	<edge id="159252760_1713456620_6040221521_1713456490" from="1713456490" to="6040221521" numLanes="2" speed="16.67" />
	<edge id="300975403_3050848632_3050848735_3050848632" from="3050848632" to="3050848735" numLanes="1" speed="5.56" />
	<edge id="300879091_3049711944_3049615314_3049711944" from="3049711944" to="562964321" numLanes="1" speed="16.67" />
	<edge id="300879091_3049711944_3049615314_562964321" from="562964321" to="3049615314" numLanes="1" speed="16.67" />
	<edge id="185306860_1958716071_1958716073_1958716071" from="1958716071" to="1958716089" numLanes="1" speed="5.56" />
	<edge id="185306860_1958716071_1958716073_1958716089" from="1958716089" to="1958716080" numLanes="1" speed="5.56" />
	<edge id="185306860_1958716071_1958716073_1958716080" from="1958716080" to="1958716083" numLanes="1" speed="5.56" />
	<edge id="185306860_1958716071_1958716073_1958716083" from="1958716083" to="1958716070" numLanes="1" speed="5.56" />
	<edge id="185306860_1958716071_1958716073_1958716070" from="1958716070" to="1958716073" numLanes="1" speed="5.56" />
	<edge id="159252265_3050473826_1713449347_3050473826" from="3050473826" to="1713449347" numLanes="1" speed="8.33" />
	<edge id="300879544_3049717242_3049717241_3049717242" from="3049717242" to="3049717241" numLanes="1" speed="5.56" />
	<edge id="300903712_3050050521_3050050518_3050050521" from="3050050521" to="3050050518" numLanes="1" speed="8.33" />
	<edge id="159252234_1713449183_3050925369_1713449183" from="1713449183" to="3050925369" numLanes="2" speed="8.33" />
	<edge id="300929757_1761412217_1713449190_1761412217" from="1761412217" to="1713449190" numLanes="1" speed="8.33" />
	<edge id="300938499_3050450982_3050450979_3050450982" from="3050450982" to="3050450981" numLanes="1" speed="8.33" />
	<edge id="300938499_3050450982_3050450979_3050450981" from="3050450981" to="3050450980" numLanes="1" speed="8.33" />
	<edge id="300938499_3050450982_3050450979_3050450980" from="3050450980" to="3050450979" numLanes="1" speed="8.33" />
	<edge id="159252259_563003471_1713449176_563003471" from="563003471" to="1713449176" numLanes="1" speed="8.33" />
	<edge id="159252237_1713449196_1713449207_1713449196" from="1713449196" to="1713449218" numLanes="1" speed="8.33" />
	<edge id="159252237_1713449196_1713449207_1713449218" from="1713449218" to="1713449348" numLanes="1" speed="8.33" />
	<edge id="159252237_1713449196_1713449207_1713449348" from="1713449348" to="1713449207" numLanes="1" speed="8.33" />
	<edge id="159252235_3050033634_1713449111_3050033634" from="3050033634" to="1713449111" numLanes="1" speed="8.33" />
	<edge id="300879542_3049717242_3049717249_3049717242" from="3049717242" to="3049717244" numLanes="1" speed="5.56" />
	<edge id="300879542_3049717242_3049717249_3049717244" from="3049717244" to="3049717245" numLanes="1" speed="5.56" />
	<edge id="300879542_3049717242_3049717249_3049717245" from="3049717245" to="3049717246" numLanes="1" speed="5.56" />
	<edge id="300879542_3049717242_3049717249_3049717246" from="3049717246" to="3049717247" numLanes="1" speed="5.56" />
	<edge id="300879542_3049717242_3049717249_3049717247" from="3049717247" to="3049717248" numLanes="1" speed="5.56" />