<?xml version="1.0" encoding="UTF-8"?>

<!-- generated on Thu Jul  9 00:55:02 2020 by Eclipse SUMO netconvert Version 1.2.0
<configuration xmlns:xsi="http://www.w3.org/2001/XMLSchema-instance" xsi:noNamespaceSchemaLocation="http://sumo.dlr.de/xsd/netconvertConfiguration.xsd">

    <input>
        <node-files value="/home/vsimrti/scenarios/ids/sumo/gualtar12/gualtar12.nod.xml"/>
        <edge-files value="/home/vsimrti/scenarios/ids/sumo/gualtar12/gualtar12.edg.xml"/>
        <connection-files value="/home/vsimrti/scenarios/ids/sumo/gualtar12/gualtar12.con.xml"/>
    </input>

    <output>
        <output-file value="/home/vsimrti/scenarios/ids/sumo/gualtar12/gualtar12.net.xml"/>
    </output>

</configuration>
-->

<net version="1.1" junctionCornerDetail="5" limitTurnSpeed="5.50" xmlns:xsi="http://www.w3.org/2001/XMLSchema-instance" xsi:noNamespaceSchemaLocation="http://sumo.dlr.de/xsd/net_file.xsd">

    <location netOffset="-635119.99,-4347868.76" convBoundary="0.00,0.00,1005.99,1844.41" origBoundary="635119.99,4347868.76,636125.98,4349713.17" projParameter="!"/>

    <edge id=":1112481000_0" function="internal">
        <lane id=":1112481000_0_0" index="0" speed="13.00" length="1.00" shape="118.99,1011.66 118.56,1011.53 118.28,1011.42 118.01,1011.27 117.64,1011.02"/>
        <lane id=":1112481000_0_1" index="1" speed="13.89" length="1.00" shape="119.89,1008.59 119.75,1008.54 119.66,1008.51 119.57,1008.46 119.44,1008.37"/>
    </edge>
    <edge id=":1112481002_0" function="internal">
        <lane id=":1112481002_0_0" index="0" speed="8.13" length="12.74" shape="150.32,1036.12 147.62,1032.03 146.02,1028.77 145.54,1026.34 146.15,1024.72"/>
    </edge>
    <edge id=":1112481002_1" function="internal">
        <lane id=":1112481002_1_0" index="0" speed="3.65" length="4.67" shape="150.32,1036.12 150.26,1034.68 150.68,1033.88 151.56,1033.74 152.91,1034.24"/>
    </edge>
    <edge id=":1112481002_2" function="internal">
        <lane id=":1112481002_2_0" index="0" speed="6.95" length="8.26" shape="152.56,1026.62 151.56,1028.37 151.29,1030.22 151.74,1032.18 152.91,1034.24"/>
    </edge>
    <edge id=":1112481002_3" function="internal">
        <lane id=":1112481002_3_0" index="0" speed="11.12" length="7.66" shape="141.62,1030.09 142.51,1028.12 142.43,1026.41 142.40,1024.74 143.45,1022.90"/>
    </edge>
    <edge id=":1112481003_0" function="internal">
        <lane id=":1112481003_0_0" index="0" speed="16.67" length="4.49" shape="198.40,1101.26 196.72,1101.21 195.57,1101.14 194.45,1100.91 192.86,1100.40"/>
        <lane id=":1112481003_0_1" index="1" speed="16.67" length="4.49" shape="197.12,1098.01 196.13,1097.96 195.46,1097.87 194.80,1097.68 193.87,1097.36"/>
    </edge>
    <edge id=":1112481003_2" function="internal">
        <lane id=":1112481003_2_0" index="0" speed="4.45" length="3.46" shape="189.55,1101.43 192.86,1100.40"/>
    </edge>
    <edge id=":1112481003_3" function="internal">
        <lane id=":1112481003_3_0" index="0" speed="5.25" length="5.19" shape="192.65,1102.25 193.08,1101.13 193.71,1099.57 194.11,1098.13 193.87,1097.36"/>
    </edge>
    <edge id=":1112481004_0" function="internal">
        <lane id=":1112481004_0_0" index="0" speed="12.50" length="4.93" shape="213.53,1090.07 212.66,1091.19 212.04,1091.95 211.47,1092.73 210.69,1093.92"/>
        <lane id=":1112481004_0_1" index="1" speed="12.50" length="4.93" shape="210.98,1088.14 210.05,1089.33 209.41,1090.14 208.80,1090.97 207.98,1092.23"/>
    </edge>
    <edge id=":1112481004_2" function="internal">
        <lane id=":1112481004_2_0" index="0" speed="16.67" length="2.54" shape="211.92,1091.22 211.66,1092.07 211.45,1092.63 211.16,1093.17 210.69,1093.92"/>
        <lane id=":1112481004_2_1" index="1" speed="16.67" length="2.54" shape="208.84,1090.34 208.66,1090.93 208.51,1091.33 208.30,1091.70 207.98,1092.23"/>
    </edge>
    <edge id=":1112481007_0" function="internal">
        <lane id=":1112481007_0_0" index="0" speed="11.52" length="1.06" shape="185.31,1077.30 185.54,1076.89 185.72,1076.62 185.94,1076.39 186.29,1076.07"/>
        <lane id=":1112481007_0_1" index="1" speed="16.67" length="1.06" shape="188.10,1078.86 188.18,1078.72 188.24,1078.63 188.32,1078.55 188.43,1078.45"/>
    </edge>
    <edge id=":1112481010_0" function="internal">
        <lane id=":1112481010_0_0" index="0" speed="13.89" length="3.54" shape="113.21,1008.00 112.28,1007.28 111.74,1006.68 111.27,1005.99 110.56,1005.03"/>
        <lane id=":1112481010_0_1" index="1" speed="13.89" length="3.54" shape="115.02,1005.36 114.31,1004.80 113.92,1004.31 113.59,1003.77 113.06,1003.03"/>
    </edge>
    <edge id=":1112481014_0" function="internal">
        <lane id=":1112481014_0_0" index="0" speed="6.69" length="5.92" shape="204.18,1072.43 205.16,1072.17 206.54,1071.08 207.90,1069.80 208.87,1068.96"/>
    </edge>
    <edge id=":1112481014_1" function="internal">
        <lane id=":1112481014_1_0" index="0" speed="7.11" length="6.78" shape="204.18,1072.43 205.62,1072.96 207.17,1073.00 208.82,1072.57 210.58,1071.66"/>
    </edge>
    <edge id=":1112481014_2" function="internal">
        <lane id=":1112481014_2_0" index="0" speed="16.67" length="5.24" shape="204.18,1072.43 205.66,1073.25 206.64,1073.88 207.53,1074.63 208.71,1075.84"/>
        <lane id=":1112481014_2_1" index="1" speed="16.67" length="5.24" shape="202.63,1075.23 203.87,1075.92 204.69,1076.44 205.43,1077.07 206.42,1078.07"/>
    </edge>
    <edge id=":1112481020_0" function="internal">
        <lane id=":1112481020_0_0" index="0" speed="16.67" length="3.74" shape="212.86,1086.87 212.86,1088.13 212.69,1088.98 212.37,1089.81 211.97,1091.02"/>
        <lane id=":1112481020_0_1" index="1" speed="14.72" length="3.74" shape="209.66,1087.09 209.65,1088.02 209.48,1088.64 209.21,1089.25 208.89,1090.15"/>
    </edge>
    <edge id=":1112481021_0" function="internal">
        <lane id=":1112481021_0_0" index="0" speed="16.67" length="3.98" shape="197.34,1070.65 201.70,1071.53"/>
        <lane id=":1112481021_0_1" index="1" speed="16.67" length="3.98" shape="197.57,1073.94 201.00,1074.65"/>
    </edge>
    <edge id=":1112481021_2" function="internal">
        <lane id=":1112481021_2_0" index="0" speed="16.67" length="3.93" shape="197.36,1071.03 198.66,1070.97 199.55,1071.04 200.43,1071.23 201.70,1071.53"/>
        <lane id=":1112481021_2_1" index="1" speed="16.67" length="3.93" shape="197.59,1074.22 198.61,1074.18 199.31,1074.25 200.00,1074.41 201.00,1074.65"/>
    </edge>
    <edge id=":1112481022_0" function="internal">
        <lane id=":1112481022_0_0" index="0" speed="13.89" length="3.86" shape="105.44,989.47 105.43,988.21 105.58,987.36 105.83,986.51 106.13,985.27"/>
        <lane id=":1112481022_0_1" index="1" speed="13.89" length="3.86" shape="108.63,989.28 108.64,988.27 108.78,987.59 109.01,986.91 109.27,985.92"/>
    </edge>
    <edge id=":1112481026_0" function="internal">
        <lane id=":1112481026_0_0" index="0" speed="14.72" length="2.59" shape="208.85,1075.98 209.52,1076.65 209.98,1077.10 210.37,1077.61 210.79,1078.44"/>
        <lane id=":1112481026_0_1" index="1" speed="11.82" length="2.59" shape="206.56,1078.22 206.99,1078.63 207.31,1078.90 207.58,1079.21 207.86,1079.73"/>
    </edge>
    <edge id=":1112481031_0" function="internal">
        <lane id=":1112481031_0_0" index="0" speed="13.89" length="0.94" shape="145.11,1006.33 144.86,1006.67 144.67,1006.88 144.45,1007.07 144.12,1007.33"/>
        <lane id=":1112481031_0_1" index="1" speed="13.89" length="0.94" shape="142.53,1004.43 142.45,1004.55 142.39,1004.62 142.31,1004.68 142.20,1004.77"/>
    </edge>
    <edge id=":1112481033_0" function="internal">
        <lane id=":1112481033_0_0" index="0" speed="2.97" length="1.19" shape="192.67,1100.33 193.25,1101.37"/>
    </edge>
    <edge id=":1112481033_1" function="internal">
        <lane id=":1112481033_1_0" index="0" speed="16.67" length="3.44" shape="192.67,1100.33 191.58,1099.96 190.85,1099.68 190.15,1099.32 189.20,1098.69"/>
        <lane id=":1112481033_1_1" index="1" speed="16.67" length="3.44" shape="193.68,1097.29 192.84,1097.01 192.26,1096.79 191.72,1096.51 190.97,1096.03"/>
    </edge>
    <edge id=":1112481033_3" function="internal">
        <lane id=":1112481033_3_0" index="0" speed="4.52" length="2.52" shape="190.08,1100.90 190.12,1100.22 189.98,1099.63 189.67,1099.12 189.20,1098.69"/>
    </edge>
    <edge id=":1112481034_0" function="internal">
        <lane id=":1112481034_0_0" index="0" speed="13.89" length="0.90" shape="109.42,977.69 109.61,977.34 109.76,977.11 109.94,976.90 110.22,976.61"/>
        <lane id=":1112481034_0_1" index="1" speed="13.89" length="0.90" shape="112.24,979.21 112.30,979.09 112.35,979.02 112.41,978.95 112.50,978.85"/>
    </edge>
    <edge id=":1112481036_0" function="internal">
        <lane id=":1112481036_0_0" index="0" speed="11.30" length="2.20" shape="151.08,993.35 151.06,994.00 151.15,994.43 151.31,994.86 151.51,995.49"/>
    </edge>
    <edge id=":1112481036_1" function="internal">
        <lane id=":1112481036_1_0" index="0" speed="15.08" length="3.99" shape="151.08,993.35 148.42,996.33"/>
    </edge>
    <edge id=":1112481036_2" function="internal">
        <lane id=":1112481036_2_0" index="0" speed="13.89" length="3.59" shape="151.08,993.35 150.95,994.52 150.82,995.31 150.59,996.09 150.20,997.19"/>
        <lane id=":1112481036_2_1" index="1" speed="13.89" length="3.59" shape="147.90,993.00 147.80,993.95 147.68,994.60 147.50,995.23 147.18,996.13"/>
    </edge>
    <edge id=":1112481042_0" function="internal">
        <lane id=":1112481042_0_0" index="0" speed="13.89" length="0.87" shape="131.40,968.05 131.79,968.06 132.05,968.09 132.31,968.15 132.68,968.26"/>
        <lane id=":1112481042_0_1" index="1" speed="13.89" length="0.87" shape="131.31,971.25 131.44,971.25 131.53,971.26 131.61,971.28 131.74,971.32"/>
    </edge>
    <edge id=":1112481043_0" function="internal">
        <lane id=":1112481043_0_0" index="0" speed="13.89" length="0.94" shape="148.92,1000.80 148.78,1001.20 148.66,1001.46 148.51,1001.70 148.26,1002.04"/>
        <lane id=":1112481043_0_1" index="1" speed="13.89" length="0.94" shape="145.91,999.73 145.86,999.86 145.82,999.95 145.77,1000.03 145.69,1000.15"/>
    </edge>
    <edge id=":1112481048_0" function="internal">
        <lane id=":1112481048_0_0" index="0" speed="16.67" length="2.18" shape="210.59,1094.09 210.19,1094.75 209.92,1095.19 209.60,1095.61 209.07,1096.15"/>
        <lane id=":1112481048_0_1" index="1" speed="16.67" length="2.18" shape="207.87,1092.40 207.60,1092.86 207.42,1093.18 207.21,1093.47 206.85,1093.85"/>
    </edge>
    <edge id=":1112481048_2" function="internal">
        <lane id=":1112481048_2_0" index="0" speed="16.67" length="6.15" shape="207.87,1092.40 207.42,1094.13 207.98,1095.51 208.61,1096.92 208.37,1098.77"/>
        <lane id=":1112481048_2_1" index="1" speed="16.67" length="6.15" shape="207.87,1092.40 207.03,1093.83 206.53,1094.86 206.10,1095.92 205.45,1097.46"/>
    </edge>
    <edge id=":1112481056_0" function="internal">
        <lane id=":1112481056_0_0" index="0" speed="8.07" length="5.36" shape="138.02,969.90 139.52,970.26 140.61,970.21 141.67,969.82 143.10,969.11"/>
    </edge>
    <edge id=":1112481056_1" function="internal">
        <lane id=":1112481056_1_0" index="0" speed="13.89" length="5.30" shape="138.02,969.90 139.59,970.53 140.55,971.19 141.45,971.99 142.83,973.02"/>
        <lane id=":1112481056_1_1" index="1" speed="13.89" length="5.30" shape="137.07,972.96 138.37,973.50 139.15,974.08 139.87,974.78 141.01,975.65"/>
    </edge>
    <edge id=":1114675356_0" function="internal">
        <lane id=":1114675356_0_0" index="0" speed="25.00" length="0.27" shape="568.34,651.22 568.50,651.06"/>
        <lane id=":1114675356_0_1" index="1" speed="25.00" length="0.27" shape="570.50,653.58 570.72,653.37"/>
    </edge>
    <edge id=":1114675362_0" function="internal">
        <lane id=":1114675362_0_0" index="0" speed="25.00" length="0.61" shape="292.58,890.06 292.43,890.17 292.33,890.24 292.23,890.30 292.07,890.39"/>
    </edge>
    <edge id=":1114675362_1" function="internal">
        <lane id=":1114675362_1_0" index="0" speed="25.00" length="0.20" shape="290.49,887.61 290.55,887.58 290.58,887.55 290.62,887.53 290.66,887.50"/>
    </edge>
    <edge id=":1114675379_0" function="internal">
        <lane id=":1114675379_0_0" index="0" speed="25.00" length="0.30" shape="753.80,499.46 753.59,499.65"/>
        <lane id=":1114675379_0_1" index="1" speed="25.00" length="0.30" shape="751.66,497.08 751.43,497.29"/>
    </edge>
    <edge id=":1114675381_0" function="internal">
        <lane id=":1114675381_0_0" index="0" speed="25.00" length="0.26" shape="777.71,477.92 777.61,478.00"/>
        <lane id=":1114675381_0_1" index="1" speed="25.00" length="0.26" shape="775.77,475.38 775.47,475.62"/>
    </edge>
    <edge id=":1114675386_0" function="internal">
        <lane id=":1114675386_0_0" index="0" speed="25.00" length="0.13" shape="547.96,692.56 547.84,692.67"/>
        <lane id=":1114675386_0_1" index="1" speed="25.00" length="0.13" shape="545.82,690.19 545.78,690.22"/>
    </edge>
    <edge id=":1114682706_0" function="internal">
        <lane id=":1114682706_0_0" index="0" speed="8.33" length="0.25" shape="323.25,932.95 323.20,933.01 323.16,933.04 323.13,933.08 323.09,933.14"/>
    </edge>
    <edge id=":1114682706_1" function="internal">
        <lane id=":1114682706_1_0" index="0" speed="8.33" length="0.75" shape="320.46,931.32 320.59,931.13 320.68,931.01 320.78,930.90 320.94,930.74"/>
    </edge>
    <edge id=":1114682708_0" function="internal">
        <lane id=":1114682708_0_0" index="0" speed="8.33" length="0.24" shape="346.19,923.19 346.12,923.18 346.07,923.19 346.02,923.21 345.95,923.22"/>
    </edge>
    <edge id=":1114682708_1" function="internal">
        <lane id=":1114682708_1_0" index="0" speed="8.33" length="1.32" shape="345.81,920.02 346.20,920.00 346.47,919.99 346.74,920.02 347.11,920.13"/>
    </edge>
    <edge id=":1114682711_0" function="internal">
        <lane id=":1114682711_0_0" index="0" speed="8.33" length="0.10" shape="233.78,1055.29 233.72,1055.37"/>
    </edge>
    <edge id=":1114682711_1" function="internal">
        <lane id=":1114682711_1_0" index="0" speed="8.33" length="0.17" shape="231.09,1053.55 231.19,1053.40"/>
    </edge>
    <edge id=":1114682713_0" function="internal">
        <lane id=":1114682713_0_0" index="0" speed="8.33" length="0.31" shape="355.77,926.45 355.59,926.20"/>
    </edge>
    <edge id=":1114682713_1" function="internal">
        <lane id=":1114682713_1_0" index="0" speed="7.24" length="1.97" shape="356.47,923.12 357.01,923.32 357.36,923.52 357.66,923.79 358.06,924.21"/>
    </edge>
    <edge id=":1114682718_0" function="internal">
        <lane id=":1114682718_0_0" index="0" speed="8.33" length="0.29" shape="248.75,1034.77 248.58,1035.00"/>
    </edge>
    <edge id=":1114682718_1" function="internal">
        <lane id=":1114682718_1_0" index="0" speed="8.33" length="0.31" shape="245.99,1033.11 246.17,1032.86"/>
    </edge>
    <edge id=":1114682719_0" function="internal">
        <lane id=":1114682719_0_0" index="0" speed="4.41" length="1.04" shape="331.50,924.79 331.20,924.85 331.00,924.92 330.82,925.05 330.61,925.26"/>
    </edge>
    <edge id=":1114682719_1" function="internal">
        <lane id=":1114682719_1_0" index="0" speed="7.04" length="3.12" shape="328.30,923.05 328.95,922.40 329.47,922.02 330.07,921.81 330.98,921.63"/>
    </edge>
    <edge id=":1114682720_0" function="internal">
        <lane id=":1114682720_0_0" index="0" speed="8.33" length="0.10" shape="452.44,1042.32 452.39,1042.24"/>
    </edge>
    <edge id=":1114682720_1" function="internal">
        <lane id=":1114682720_1_0" index="0" speed="8.33" length="0.17" shape="455.01,1040.41 455.11,1040.55"/>
    </edge>
    <edge id=":1114682721_0" function="internal">
        <lane id=":1114682721_0_0" index="0" speed="8.33" length="15.33" shape="233.64,1055.48 232.11,1058.53 231.22,1061.72 230.08,1065.36 227.85,1069.77"/>
        <lane id=":1114682721_0_1" index="1" speed="8.33" length="15.33" shape="233.64,1055.48 225.14,1068.06"/>
    </edge>
    <edge id=":1114682721_2" function="internal">
        <lane id=":1114682721_2_0" index="0" speed="3.65" length="2.52" shape="233.64,1055.48 232.31,1056.04 231.43,1055.93 231.33,1055.77"/>
    </edge>
    <edge id=":1114682721_4" function="internal">
        <lane id=":1114682721_4_0" index="0" speed="3.65" length="2.15" shape="231.33,1055.77 230.98,1055.15 230.98,1053.71"/>
    </edge>
    <edge id=":1114682721_3" function="internal">
        <lane id=":1114682721_3_0" index="0" speed="8.33" length="13.86" shape="219.96,1061.92 223.73,1059.66 226.58,1057.97 228.87,1056.21 230.98,1053.71"/>
    </edge>
    <edge id=":1114682722_0" function="internal">
        <lane id=":1114682722_0_0" index="0" speed="8.33" length="0.19" shape="339.29,923.51 339.23,923.51 339.19,923.52 339.15,923.52 339.10,923.53"/>
    </edge>
    <edge id=":1114682722_1" function="internal">
        <lane id=":1114682722_1_0" index="0" speed="8.33" length="0.58" shape="338.57,920.37 338.74,920.35 338.86,920.33 338.97,920.32 339.15,920.31"/>
    </edge>
    <edge id=":1114687902_0" function="internal">
        <lane id=":1114687902_0_0" index="0" speed="8.33" length="0.31" shape="329.10,248.00 329.09,247.68"/>
    </edge>
    <edge id=":1114687902_1" function="internal">
        <lane id=":1114687902_1_0" index="0" speed="8.33" length="0.25" shape="332.29,247.65 332.30,247.90"/>
    </edge>
    <edge id=":1114687903_0" function="internal">
        <lane id=":1114687903_0_0" index="0" speed="8.33" length="0.21" shape="62.79,871.34 62.76,871.39 62.74,871.43 62.72,871.47 62.70,871.53"/>
    </edge>
    <edge id=":1114687903_1" function="internal">
        <lane id=":1114687903_1_0" index="0" speed="8.33" length="0.63" shape="59.70,870.44 59.76,870.26 59.81,870.14 59.86,870.03 59.95,869.86"/>
    </edge>
    <edge id=":1114687916_0" function="internal">
        <lane id=":1114687916_0_0" index="0" speed="8.33" length="0.28" shape="100.05,801.30 99.92,801.55"/>
    </edge>
    <edge id=":1114687916_1" function="internal">
        <lane id=":1114687916_1_0" index="0" speed="8.33" length="0.16" shape="97.10,800.03 97.17,799.89"/>
    </edge>
    <edge id=":1114687919_0" function="internal">
        <lane id=":1114687919_0_0" index="0" speed="8.33" length="0.40" shape="333.00,271.10 332.99,271.50"/>
    </edge>
    <edge id=":1114687919_1" function="internal">
        <lane id=":1114687919_1_0" index="0" speed="8.33" length="0.13" shape="329.80,271.32 329.80,271.19"/>
    </edge>
    <edge id=":1114687920_0" function="internal">
        <lane id=":1114687920_0_0" index="0" speed="8.33" length="0.39" shape="256.56,543.99 256.36,544.32"/>
    </edge>
    <edge id=":1114687920_1" function="internal">
        <lane id=":1114687920_1_0" index="0" speed="8.33" length="0.13" shape="253.69,542.57 253.75,542.46"/>
    </edge>
    <edge id=":1114687922_0" function="internal">
        <lane id=":1114687922_0_0" index="0" speed="8.33" length="0.14" shape="116.42,759.43 116.38,759.56"/>
    </edge>
    <edge id=":1114687922_1" function="internal">
        <lane id=":1114687922_1_0" index="0" speed="8.33" length="0.41" shape="113.27,758.79 113.39,758.40"/>
    </edge>
    <edge id=":1114687923_0" function="internal">
        <lane id=":1114687923_0_0" index="0" speed="8.33" length="0.28" shape="337.75,200.16 337.68,200.43"/>
    </edge>
    <edge id=":1114687923_1" function="internal">
        <lane id=":1114687923_1_0" index="0" speed="8.33" length="0.31" shape="334.59,199.60 334.67,199.30"/>
    </edge>
    <edge id=":1114687925_0" function="internal">
        <lane id=":1114687925_0_0" index="0" speed="8.33" length="0.41" shape="244.69,562.17 244.45,562.51"/>
    </edge>
    <edge id=":1114687925_1" function="internal">
        <lane id=":1114687925_1_0" index="0" speed="8.33" length="0.14" shape="241.94,560.54 242.02,560.42"/>
    </edge>
    <edge id=":1114687927_0" function="internal">
        <lane id=":1114687927_0_0" index="0" speed="8.33" length="0.46" shape="113.46,771.24 113.43,771.37 113.40,771.46 113.37,771.55 113.33,771.68"/>
    </edge>
    <edge id=":1114687927_1" function="internal">
        <lane id=":1114687927_1_0" index="0" speed="8.33" length="0.15" shape="110.31,770.61 110.33,770.57 110.34,770.54 110.35,770.51 110.36,770.47"/>
    </edge>
    <edge id=":1114687928_0" function="internal">
        <lane id=":1114687928_0_0" index="0" speed="8.33" length="1.31" shape="328.82,221.85 328.82,221.46 328.83,221.19 328.88,220.93 328.98,220.55"/>
    </edge>
    <edge id=":1114687928_1" function="internal">
        <lane id=":1114687928_1_0" index="0" speed="8.33" length="0.44" shape="332.07,221.38 332.04,221.51 332.02,221.59 332.02,221.68 332.02,221.81"/>
    </edge>
    <edge id=":1114687943_0" function="internal">
        <lane id=":1114687943_0_0" index="0" speed="8.33" length="0.10" shape="276.00,504.73 275.96,504.82"/>
    </edge>
    <edge id=":1114687943_1" function="internal">
        <lane id=":1114687943_1_0" index="0" speed="8.33" length="0.10" shape="273.06,503.46 273.02,503.55"/>
    </edge>
    <edge id=":1114687944_0" function="internal">
        <lane id=":1114687944_0_0" index="0" speed="8.33" length="0.18" shape="132.37,729.08 132.27,729.23"/>
    </edge>
    <edge id=":1114687944_1" function="internal">
        <lane id=":1114687944_1_0" index="0" speed="8.33" length="0.29" shape="129.55,727.56 129.71,727.31"/>
    </edge>
    <edge id=":1114687946_0" function="internal">
        <lane id=":1114687946_0_0" index="0" speed="8.33" length="0.30" shape="363.83,117.77 363.73,118.05"/>
    </edge>
    <edge id=":1114687946_1" function="internal">
        <lane id=":1114687946_1_0" index="0" speed="8.33" length="0.30" shape="360.70,117.01 360.80,116.72"/>
    </edge>
    <edge id=":1114687947_0" function="internal">
        <lane id=":1114687947_0_0" index="0" speed="8.33" length="0.67" shape="306.29,432.28 306.24,432.47 306.20,432.60 306.15,432.73 306.07,432.91"/>
    </edge>
    <edge id=":1114687947_1" function="internal">
        <lane id=":1114687947_1_0" index="0" speed="8.33" length="0.22" shape="303.14,431.63 303.16,431.57 303.18,431.53 303.19,431.48 303.21,431.42"/>
    </edge>
    <edge id=":1114687948_0" function="internal">
        <lane id=":1114687948_0_0" index="0" speed="8.33" length="0.10" shape="264.01,530.29 263.97,530.37"/>
    </edge>
    <edge id=":1114687948_1" function="internal">
        <lane id=":1114687948_1_0" index="0" speed="8.33" length="0.10" shape="261.16,528.84 261.12,528.93"/>
    </edge>
    <edge id=":1114687950_0" function="internal">
        <lane id=":1114687950_0_0" index="0" speed="8.33" length="0.36" shape="119.92,749.30 119.87,749.39 119.84,749.46 119.81,749.52 119.77,749.62"/>
    </edge>
    <edge id=":1114687950_1" function="internal">
        <lane id=":1114687950_1_0" index="0" speed="8.33" length="1.07" shape="116.75,748.59 116.85,748.29 116.93,748.09 117.03,747.90 117.20,747.63"/>
    </edge>
    <edge id=":1114687951_0" function="internal">
        <lane id=":1114687951_0_0" index="0" speed="8.33" length="0.10" shape="346.98,167.11 347.00,167.03"/>
    </edge>
    <edge id=":1114687951_1" function="internal">
        <lane id=":1114687951_1_0" index="0" speed="8.33" length="0.10" shape="343.92,166.17 343.95,166.08"/>
    </edge>
    <edge id=":1114687960_0" function="internal">
        <lane id=":1114687960_0_0" index="0" speed="8.33" length="0.19" shape="289.59,470.56 289.52,470.73"/>
    </edge>
    <edge id=":1114687960_1" function="internal">
        <lane id=":1114687960_1_0" index="0" speed="8.33" length="0.30" shape="286.55,469.55 286.66,469.27"/>
    </edge>
    <edge id=":1114687964_0" function="internal">
        <lane id=":1114687964_0_0" index="0" speed="8.33" length="0.93" shape="169.12,674.04 169.01,674.29 168.92,674.46 168.83,674.62 168.67,674.85"/>
    </edge>
    <edge id=":1114687964_1" function="internal">
        <lane id=":1114687964_1_0" index="0" speed="8.33" length="0.31" shape="166.02,673.05 166.08,672.98 166.11,672.92 166.14,672.87 166.17,672.78"/>
    </edge>
    <edge id=":1114687965_0" function="internal">
        <lane id=":1114687965_0_0" index="0" speed="8.33" length="0.50" shape="379.06,65.38 379.04,65.53 379.03,65.63 379.01,65.73 378.98,65.88"/>
    </edge>
    <edge id=":1114687965_1" function="internal">
        <lane id=":1114687965_1_0" index="0" speed="8.33" length="0.17" shape="375.85,65.20 375.86,65.15 375.87,65.11 375.87,65.08 375.88,65.03"/>
    </edge>
    <edge id=":1114687966_0" function="internal">
        <lane id=":1114687966_0_0" index="0" speed="8.33" length="0.30" shape="321.52,366.91 321.46,367.21"/>
    </edge>
    <edge id=":1114687966_1" function="internal">
        <lane id=":1114687966_1_0" index="0" speed="8.33" length="0.29" shape="318.32,366.61 318.37,366.32"/>
    </edge>
    <edge id=":1114687969_0" function="internal">
        <lane id=":1114687969_0_0" index="0" speed="8.33" length="0.28" shape="158.28,690.17 158.12,690.41"/>
    </edge>
    <edge id=":1114687969_1" function="internal">
        <lane id=":1114687969_1_0" index="0" speed="8.33" length="0.31" shape="155.46,688.63 155.63,688.38"/>
    </edge>
    <edge id=":1114687972_0" function="internal">
        <lane id=":1114687972_0_0" index="0" speed="8.33" length="0.56" shape="374.42,86.87 374.38,87.04 374.35,87.15 374.32,87.26 374.27,87.42"/>
    </edge>
    <edge id=":1114687972_1" function="internal">
        <lane id=":1114687972_1_0" index="0" speed="8.33" length="0.19" shape="371.24,86.38 371.26,86.32 371.27,86.29 371.28,86.25 371.29,86.19"/>
    </edge>
    <edge id=":1114687983_0" function="internal">
        <lane id=":1114687983_0_0" index="0" speed="8.33" length="0.41" shape="314.98,401.18 314.89,401.57"/>
    </edge>
    <edge id=":1114687983_1" function="internal">
        <lane id=":1114687983_1_0" index="0" speed="8.33" length="0.14" shape="311.81,400.71 311.84,400.58"/>
    </edge>
    <edge id=":1114687986_0" function="internal">
        <lane id=":1114687986_0_0" index="0" speed="3.65" length="4.67" shape="58.50,883.08 57.34,883.94 56.45,884.04 55.83,883.39 55.49,881.99"/>
    </edge>
    <edge id=":1114687988_0" function="internal">
        <lane id=":1114687988_0_0" index="0" speed="8.33" length="0.35" shape="177.51,654.94 177.45,655.03 177.41,655.09 177.38,655.15 177.34,655.25"/>
    </edge>
    <edge id=":1114687988_1" function="internal">
        <lane id=":1114687988_1_0" index="0" speed="8.33" length="1.05" shape="174.42,653.94 174.55,653.65 174.65,653.46 174.76,653.28 174.95,653.03"/>
    </edge>
    <edge id=":1114687991_0" function="internal">
        <lane id=":1114687991_0_0" index="0" speed="8.33" length="0.30" shape="331.35,302.26 331.33,302.56"/>
    </edge>
    <edge id=":1114687991_1" function="internal">
        <lane id=":1114687991_1_0" index="0" speed="8.33" length="0.10" shape="328.15,302.19 328.16,302.09"/>
    </edge>
    <edge id=":1114687994_0" function="internal">
        <lane id=":1114687994_0_0" index="0" speed="8.33" length="0.25" shape="173.11,664.69 173.00,664.92"/>
    </edge>
    <edge id=":1114687994_1" function="internal">
        <lane id=":1114687994_1_0" index="0" speed="8.33" length="0.31" shape="170.06,663.66 170.19,663.38"/>
    </edge>
    <edge id=":1114687995_0" function="internal">
        <lane id=":1114687995_0_0" index="0" speed="8.33" length="0.10" shape="381.48,43.16 381.47,43.24"/>
    </edge>
    <edge id=":1114687995_1" function="internal">
        <lane id=":1114687995_1_0" index="0" speed="8.33" length="0.10" shape="378.29,42.89 378.28,42.97"/>
    </edge>
    <edge id=":1114688004_0" function="internal">
        <lane id=":1114688004_0_0" index="0" speed="8.33" length="0.33" shape="327.65,334.06 327.60,334.39"/>
    </edge>
    <edge id=":1114688004_1" function="internal">
        <lane id=":1114688004_1_0" index="0" speed="8.33" length="0.11" shape="324.46,333.80 324.47,333.69"/>
    </edge>
    <edge id=":1114688005_0" function="internal">
        <lane id=":1114688005_0_0" index="0" speed="8.33" length="0.27" shape="75.70,846.52 75.58,846.75"/>
    </edge>
    <edge id=":1114688005_1" function="internal">
        <lane id=":1114688005_1_0" index="0" speed="8.33" length="0.31" shape="72.74,845.28 72.88,845.00"/>
    </edge>
    <edge id=":1114688007_0" function="internal">
        <lane id=":1114688007_0_0" index="0" speed="8.33" length="0.13" shape="216.74,597.83 216.67,597.94"/>
    </edge>
    <edge id=":1114688007_1" function="internal">
        <lane id=":1114688007_1_0" index="0" speed="8.33" length="0.39" shape="214.00,596.17 214.23,595.86"/>
    </edge>
    <edge id=":1114688009_0" function="internal">
        <lane id=":1114688009_0_0" index="0" speed="8.33" length="0.54" shape="110.32,780.17 110.27,780.32 110.23,780.43 110.18,780.53 110.11,780.67"/>
    </edge>
    <edge id=":1114688009_1" function="internal">
        <lane id=":1114688009_1_0" index="0" speed="8.33" length="0.18" shape="107.23,779.27 107.26,779.22 107.27,779.19 107.29,779.15 107.30,779.10"/>
    </edge>
    <edge id=":1114708792_0" function="internal">
        <lane id=":1114708792_0_0" index="0" speed="3.65" length="4.67" shape="380.74,-0.09 381.61,-1.24 382.43,-1.60 383.20,-1.15 383.93,0.09"/>
    </edge>
    <edge id=":1713449110_0" function="internal">
        <lane id=":1713449110_0_0" index="0" speed="6.33" length="4.85" shape="274.36,1529.26 275.28,1528.40 276.31,1527.85 277.45,1527.59 278.71,1527.63"/>
    </edge>
    <edge id=":1713449110_1" function="internal">
        <lane id=":1713449110_1_0" index="0" speed="4.04" length="1.62" shape="276.79,1531.34 277.10,1531.06 277.44,1530.87 277.82,1530.79 278.24,1530.80"/>
    </edge>
    <edge id=":1713449111_0" function="internal">