<connections>
	<connection from="159252246_3050050509_3050050512_3050050509" to="159252246_3050050512_3050050515_3050050512" />
	<connection from="159252246_3050050509_3050050512_3050050509" to="300903715_3050050512_3050050514_3050050512" />
	<connection from="159252246_3050050509_3050050512_3050050509" to="159252246_3050050512_3050050509_3050050512" />
	<connection from="300879092_563003078_3049711939_563003078" to="300879093_3049711939_3049711937_3049711939" />
	<connection from="300879092_563003078_3049711939_563003078" to="300879092_3049711939_563003078_3049711939" />
	<connection from="300982204_1713449179_3050925370_1713449179" to="300982204_1713449179_3050925370_3050925371" />
	<connection from="300982204_1713449179_3050925370_3050925371" to="300982204_3050925370_1713449179_3050925370" />
	<connection from="301050124_1713449183_1713449320_1713449183" to="301050124_1713449320_1713449183_1713449320" />
	<connection from="301050124_1713449183_1713449320_1713449183" to="301050124_1713449320_3051604196_1713449320" />
	<connection from="300947025_3050537363_3050537342_3050537363" to="300947025_3050537363_3050537342_3050537365" />
	<connection from="300947025_3050537363_3050537342_3050537365" to="300947025_3050537363_3050537342_3050537364" />
	<connection from="300947025_3050537363_3050537342_3050537364" to="300947025_3050537363_3050537342_3050537362" />
	<connection from="300947025_3050537363_3050537342_3050537362" to="300947025_3050537363_3050537342_3050537360" />
	<connection from="300947025_3050537363_3050537342_3050537360" to="300947025_3050537363_3050537342_3050537357" />
	<connection from="300947025_3050537363_3050537342_3050537357" to="300947025_3050537363_3050537342_3050537354" />
	<connection from="300947025_3050537363_3050537342_3050537354" to="300947025_3050537363_3050537342_3050537352" />
	<connection from="300947025_3050537363_3050537342_3050537352" to="300947025_3050537363_3050537342_3050537350" />
	<connection from="300947025_3050537363_3050537342_3050537350" to="300947025_3050537363_3050537342_3050537346" />
	<connection from="300947025_3050537363_3050537342_3050537346" to="300947025_3050537363_3050537342_3050537344" />
	<connection from="300947025_3050537363_3050537342_3050537344" to="300947025_3050537342_3050537349_3050537342" />
	<connection from="300947025_3050537363_3050537342_3050537344" to="300947025_3050537342_3050537363_3050537342" />
	<connection from="300947025_3050537363_3050537342_3050537344" to="300947026_3050537342_1761411971_3050537342" />
	<connection from="159252241_1713449196_1713449231_1713449196" to="159252241_1713449231_1713449196_1713449231" />
	<connection from="159252241_1713449196_1713449231_1713449196" to="185510443_1713449231_1713449131_1713449231" />
	<connection from="159252241_1713449196_1713449231_1713449196" to="300990273_1713449231_3051003029_1713449231" />
	<connection from="159252287_1713449147_1713449159_1713449147" to="159252287_1713449159_1713449147_1713449159" />
	<connection from="159252287_1713449147_1713449159_1713449147" to="159252233_1713449159_3049652739_1713449159" />
	<connection from="159252287_1713449147_1713449159_1713449147" to="159252233_1713449159_1713449198_1713449159" />
	<connection from="823981547_7693168866_7693168874_7693168866" to="823981548_7693168874_7693168869_7693168874" />
	<connection from="823981547_7693168866_7693168874_7693168866" to="823981547_7693168874_3049953747_7693168874" />
	<connection from="823981547_7693168866_7693168874_7693168866" to="823981547_7693168874_7693168866_7693168874" />
	<connection from="823981547_7693168866_7693168874_7693168866" to="823981548_7693168874_7693168876_7693168874" />
	<connection from="300900782_3050033641_3049643482_3050033641" to="300900782_3049643482_3050033641_3049643482" />
	<connection from="300876517_7693168858_3049680360_7693168858" to="300876524_3049680360_3049680356_3049680360" />
	<connection from="300876517_7693168858_3049680360_7693168858" to="300876524_3049680360_1713449368_3049680360" />
	<connection from="300876517_7693168858_3049680360_7693168858" to="300876517_3049680360_7693168858_3049680360" />
	<connection from="159252259_1713449274_1960969791_1713449274" to="159252259_1713449274_1960969791_563003540" />
	<connection from="159252259_1713449274_1960969791_563003540" to="185498542_1960969791_1713449207_1960969791" />
	<connection from="159252259_1713449274_1960969791_563003540" to="159252259_1960969791_1713449274_1960969791" />
	<connection from="159252259_1713449274_1960969791_563003540" to="159252259_1960969791_1960969597_1960969791" />
	<connection from="165081927_1761374860_1761374836_1761374860" to="164506688_1761374836_1761375087_1761374836" />
	<connection from="165081927_1761374860_1761374836_1761374860" to="165081927_1761374836_1761374681_1761374836" />
	<connection from="165081927_1761374860_1761374836_1761374860" to="165081927_1761374836_1761374860_1761374836" />
	<connection from="300978235_3050882386_3050882400_3050882386" to="300978235_3050882386_3050882400_3050882387" />
	<connection from="300978235_3050882386_3050882400_3050882387" to="300978235_3050882386_3050882400_3050882396" />
	<connection from="300978235_3050882386_3050882400_3050882396" to="300978235_3050882386_3050882400_3050882399" />
	<connection from="300978235_3050882386_3050882400_3050882399" to="300879266_3050882400_1114682721_3050882400" />
	<connection from="300978235_3050882386_3050882400_3050882399" to="300879266_3050882400_3050882395_3050882400" />
	<connection from="300978235_3050882386_3050882400_3050882399" to="300978235_3050882400_3050882386_3050882400" />
	<connection from="300900779_3049667167_3050033634_3049667167" to="159252235_3050033634_3050033638_3050033634" />
	<connection from="300900779_3049667167_3050033634_3049667167" to="300900779_3050033634_3049667167_3050033634" />
	<connection from="300900779_3049667167_3050033634_3049667167" to="159252235_3050033634_1713449111_3050033634" />
	<connection from="300900779_3049667167_3050033634_3049667167" to="300900779_3050033634_3049643480_3050033634" />
	<connection from="300876521_3049680333_4962322796_3049680333" to="300876520_4962322796_3049675732_4962322796" />
	<connection from="300876521_3049680333_4962322796_3049680333" to="300876521_4962322796_4962322801_4962322796" />
	<connection from="300876521_3049680333_4962322796_3049680333" to="300876521_4962322796_3049680333_4962322796" />
	<connection from="159252763_1761412035_563003314_1761412035" to="159252763_1761412035_563003314_563003330" />
	<connection from="159252763_1761412035_563003314_563003330" to="159252763_1761412035_563003314_3050916871" />
	<connection from="159252763_1761412035_563003314_3050916871" to="159252763_1761412035_563003314_563003323" />
	<connection from="159252763_1761412035_563003314_563003323" to="159252763_1761412035_563003314_1961268811" />
	<connection from="159252763_1761412035_563003314_1961268811" to="159252241_563003314_3051586880_563003314" />
	<connection from="159252763_1761412035_563003314_1961268811" to="159252763_563003314_563003308_563003314" />
	<connection from="159252763_1761412035_563003314_1961268811" to="159252763_563003314_1761412035_563003314" />
	<connection from="300947025_3050537363_3050537349_3050537363" to="300947025_3050537363_3050537349_3050537361" />
	<connection from="300947025_3050537363_3050537349_3050537361" to="300947025_3050537363_3050537349_3050537358" />
	<connection from="300947025_3050537363_3050537349_3050537358" to="300947025_3050537363_3050537349_3050537355" />
	<connection from="300947025_3050537363_3050537349_3050537355" to="300947025_3050537363_3050537349_3050537353" />
	<connection from="300947025_3050537363_3050537349_3050537353" to="300947025_3050537363_3050537349_3050537351" />
	<connection from="300947025_3050537363_3050537349_3050537351" to="300947025_3050537349_3050537363_3050537349" />
	<connection from="300947025_3050537363_3050537349_3050537351" to="300947025_3050537349_3050537342_3050537349" />
	<connection from="300947025_3050537363_3050537349_3050537351" to="300947027_3050537349_3050537338_3050537349" />
	<connection from="506510886_4962322803_4962322802_4962322803" to="506510886_4962322803_4962322802_6040264346" />
	<connection from="506510886_4962322803_4962322802_6040264346" to="506510886_4962322803_4962322802_4962322805" />
	<connection from="506510886_4962322803_4962322802_4962322805" to="506510886_4962322803_4962322802_4962322806" />
	<connection from="506510886_4962322803_4962322802_4962322806" to="506510886_4962322802_4962322807_4962322802" />
	<connection from="506510886_4962322803_4962322802_4962322806" to="96173294_4962322802_4962323023_4962322802" />
	<connection from="159252276_3050474155_1713449163_3050474155" to="300929757_1713449163_1713449347_1713449163" />
	<connection from="159252276_3050474155_1713449163_3050474155" to="300879266_1713449163_3050882395_1713449163" />
	<connection from="159252276_3050474155_1713449163_3050474155" to="159252276_1713449163_3050474155_1713449163" />
	<connection from="300929757_1713449163_1713449347_1713449163" to="300929757_1713449163_1713449347_1114682713" />
	<connection from="300929757_1713449163_1713449347_1114682713" to="300929757_1713449347_1713449163_1713449347" />
	<connection from="300929757_1713449163_1713449347_1114682713" to="159252265_1713449347_3050473826_1713449347" />
	<connection from="300929757_1713449163_1713449347_1114682713" to="300929757_1713449347_1761412089_1713449347" />
	<connection from="300900784_3049667220_3050033651_3049667220" to="159252235_3050033651_3050033648_3050033651" />
	<connection from="300900784_3049667220_3050033651_3049667220" to="300900784_3050033651_3049667220_3050033651" />
	<connection from="300900784_3049667220_3050033651_3049667220" to="300900784_3050033651_3049643485_3050033651" />
	<connection from="300900784_3049667220_3050033651_3049667220" to="159252235_3050033651_3050033655_3050033651" />
	<connection from="301082538_3051910265_3051910266_3051910265" to="301082538_3051910266_3051910265_3051910266" />
	<connection from="301082538_3051910265_3051910266_3051910265" to="301082539_3051910266_3050474155_3051910266" />
	<connection from="300875491_3049667158_1713449180_3049667158" to="300875491_3049667158_1713449180_3049667156" />
	<connection from="300875491_3049667158_1713449180_3049667156" to="300875310_1713449180_1713449300_1713449180" />
	<connection from="300982202_3050925367_1713449181_3050925367" to="300982202_3050925367_1713449181_3051003028" />
	<connection from="300982202_3050925367_1713449181_3051003028" to="159252264_1713449181_1713449274_1713449181" />
	<connection from="300982202_3050925367_1713449181_3051003028" to="300982202_1713449181_3050925367_1713449181" />
	<connection from="301085774_3049624812_3049624807_3049624812" to="301085774_3049624812_3049624807_3049624808" />
	<connection from="301085774_3049624812_3049624807_3049624808" to="300870970_3049624807_3051938448_3049624807" />
	<connection from="301085774_3049624812_3049624807_3049624808" to="300870965_3049624807_3049624797_3049624807" />
	<connection from="300900773_3049668053_3050033659_3049668053" to="300900773_3050033659_3049668053_3050033659" />
	<connection from="300900773_3049668053_3050033659_3049668053" to="159252235_3050033659_3050033658_3050033659" />
	<connection from="300900773_3049668053_3050033659_3049668053" to="159252235_3050033659_3050033660_3050033659" />
	<connection from="159252767_6040221530_6040221505_6040221530" to="159252767_6040221530_6040221505_6040163965" />
	<connection from="159252767_6040221530_6040221505_6040163965" to="159252767_6040221530_6040221505_1713456451" />
	<connection from="159252767_6040221530_6040221505_1713456451" to="159252767_6040221530_6040221505_1713456458" />
	<connection from="159252767_6040221530_6040221505_1713456458" to="159252767_6040221530_6040221505_1713456480" />
	<connection from="159252767_6040221530_6040221505_1713456480" to="159252767_6040221530_6040221505_1713456571" />
	<connection from="159252767_6040221530_6040221505_1713456571" to="159252767_6040221530_6040221505_1713456421" />
	<connection from="159252767_6040221530_6040221505_1713456421" to="159252767_6040221530_6040221505_1713456533" />
	<connection from="159252767_6040221530_6040221505_1713456533" to="159252767_6040221530_6040221505_1713456558" />
	<connection from="159252767_6040221530_6040221505_1713456558" to="159252767_6040221530_6040221505_1713456466" />
	<connection from="159252767_6040221530_6040221505_1713456466" to="159252767_6040221530_6040221505_6040163964" />
	<connection from="159252767_6040221530_6040221505_6040163964" to="159252767_6040221530_6040221505_1713456432" />
	<connection from="159252767_6040221530_6040221505_1713456432" to="159252767_6040221530_6040221505_6040163963" />
	<connection from="159252767_6040221530_6040221505_6040163963" to="159252767_6040221530_6040221505_6040163962" />
	<connection from="159252767_6040221530_6040221505_6040163962" to="159252767_6040221505_6040221530_6040221505" />
	<connection from="159252271_563003380_1713449345_563003380" to="159252271_1713449345_1713449342_1713449345" />
	<connection from="159252271_563003380_1713449345_563003380" to="159252271_1713449345_563003380_1713449345" />
	<connection from="159252271_563003380_1713449345_563003380" to="300876807_1713449345_3050316825_1713449345" />
	<connection from="300902960_3050048745_3050048739_3050048745" to="300902960_3050048739_3050048745_3050048739" />
	<connection from="165081927_1761374681_1761375365_1761374681" to="164506682_1761375365_1761375288_1761375365" />
	<connection from="165081927_1761374681_1761375365_1761374681" to="165081927_1761375365_1761374681_1761375365" />
	<connection from="165081927_1761374681_1761375365_1761374681" to="165081927_1761375365_1761374675_1761375365" />
	<connection from="300879266_3050882395_1713449163_3050882395" to="300879266_3050882395_1713449163_6040290552" />
	<connection from="300879266_3050882395_1713449163_6040290552" to="300879266_3050882395_1713449163_1114682706" />
	<connection from="300879266_3050882395_1713449163_1114682706" to="300879266_3050882395_1713449163_1114682719" />
	<connection from="300879266_3050882395_1713449163_1114682719" to="300879266_3050882395_1713449163_1114682722" />
	<connection from="300879266_3050882395_1713449163_1114682722" to="300879266_3050882395_1713449163_1114682708" />
	<connection from="300879266_3050882395_1713449163_1114682708" to="300929757_1713449163_1713449347_1713449163" />
	<connection from="300879266_3050882395_1713449163_1114682708" to="300879266_1713449163_3050882395_1713449163" />
	<connection from="300879266_3050882395_1713449163_1114682708" to="159252276_1713449163_3050474155_1713449163" />
	<connection from="165081927_1761375218_1761374874_1761375218" to="165081933_1761374874_1761375087_1761374874" />
	<connection from="165081927_1761375218_1761374874_1761375218" to="165081927_1761374874_1761375218_1761374874" />
	<connection from="301050124_1713449320_3051604196_1713449320" to="301051768_3051604196_3051604183_3051604196" />
	<connection from="301050124_1713449320_3051604196_1713449320" to="301050124_3051604196_1713449296_3051604196" />
	<connection from="301050124_1713449320_3051604196_1713449320" to="301050124_3051604196_1713449320_3051604196" />
	<connection from="300988281_3050980363_3050980362_3050980363" to="300988282_3050980362_3050980361_3050980362" />
	<connection from="300988281_3050980363_3050980362_3050980363" to="300988281_3050980362_3050980363_3050980362" />
	<connection from="300900777_3050033657_3049668043_3050033657" to="300900777_3049668043_3050033657_3049668043" />
	<connection from="300990271_3051003029_3051003030_3051003029" to="300990272_3051003030_3050925367_3051003030" />
	<connection from="300990271_3051003029_3051003030_3051003029" to="300990271_3051003030_3051003029_3051003030" />
	<connection from="165081927_3051910262_1761374814_3051910262" to="165081927_1761374814_3051910262_1761374814" />
	<connection from="165081927_3051910262_1761374814_3051910262" to="165081927_1761374814_3049680380_1761374814" />
	<connection from="165081927_3051910262_1761374814_3051910262" to="164506677_1761374814_1761374945_1761374814" />
	<connection from="300928020_3050326244_3050326247_3050326244" to="300876807_3050326247_3050326254_3050326247" />
	<connection from="300928020_3050326244_3050326247_3050326244" to="300876807_3050326247_3050326242_3050326247" />
	<connection from="300928020_3050326244_3050326247_3050326244" to="300928020_3050326247_3050326244_3050326247" />
	<connection from="300876526_3049680367_3049680361_3049680367" to="300876516_3049680361_3049680369_3049680361" />
	<connection from="300876526_3049680367_3049680361_3049680367" to="300876526_3049680361_3049680367_3049680361" />
	<connection from="300876526_3049680367_3049680361_3049680367" to="300876526_3049680361_3049680354_3049680361" />
	<connection from="301048030_3051586895_3051586880_3051586895" to="159252241_3051586880_1713449287_3051586880" />
	<connection from="301048030_3051586895_3051586880_3051586895" to="301048030_3051586880_3051586895_3051586880" />
	<connection from="301048030_3051586895_3051586880_3051586895" to="159252241_3051586880_563003314_3051586880" />
	<connection from="300926670_3050286463_1761411971_3050286463" to="164511340_1761411971_1761411388_1761411971" />
	<connection from="300926670_3050286463_1761411971_3050286463" to="300926670_1761411971_3050537338_1761411971" />
	<connection from="300926670_3050286463_1761411971_3050286463" to="300947026_1761411971_3050537342_1761411971" />
	<connection from="300926670_3050286463_1761411971_3050286463" to="300926670_1761411971_3050286463_1761411971" />
	<connection from="159252258_3049669244_1713449111_3049669244" to="159252258_1713449111_1761411778_1713449111" />
	<connection from="159252258_3049669244_1713449111_3049669244" to="159252258_1713449111_3049669244_1713449111" />
	<connection from="159252258_3049669244_1713449111_3049669244" to="159252235_1713449111_3050033634_1713449111" />
	<connection from="300893933_1713449273_3049952229_1713449273" to="300893933_1713449273_3049952229_3049952833" />
	<connection from="300893933_1713449273_3049952229_3049952833" to="300893933_3049952229_1713449273_3049952229" />
	<connection from="164506677_1761374945_1761374814_1761374945" to="165081927_1761374814_3051910262_1761374814" />
	<connection from="164506677_1761374945_1761374814_1761374945" to="165081927_1761374814_3049680380_1761374814" />
	<connection from="164506677_1761374945_1761374814_1761374945" to="164506677_1761374814_1761374945_1761374814" />
	<connection from="164511359_1761411715_1761411868_1761411715" to="164511359_1761411868_1761411715_1761411868" />
	<connection from="164511359_1761411715_1761411868_1761411715" to="164511339_1761411868_1761412035_1761411868" />
	<connection from="164511359_1761411715_1761411868_1761411715" to="164511339_1761411868_1761412123_1761411868" />
	<connection from="159252763_563003380_1713449117_563003380" to="159252763_563003380_1713449117_563003371" />
	<connection from="159252763_563003380_1713449117_563003371" to="300875311_1713449117_1713449300_1713449117" />
	<connection from="159252763_563003380_1713449117_563003371" to="159252763_1713449117_563003380_1713449117" />
	<connection from="159252763_563003380_1713449117_563003371" to="159252763_1713449117_3050343745_1713449117" />
	<connection from="165081929_1761374675_1761374773_1761374675" to="165081933_1761374773_1761375288_1761374773" />
	<connection from="165081929_1761374675_1761374773_1761374675" to="165081929_1761374773_1761374675_1761374773" />
	<connection from="300902963_3050048764_3050048767_3050048764" to="159252246_3050048767_3050040926_3050048767" />
	<connection from="300902963_3050048764_3050048767_3050048764" to="300902963_3050048767_3050048764_3050048767" />
	<connection from="300902963_3050048764_3050048767_3050048764" to="159252246_3050048767_3050040928_3050048767" />
	<connection from="159252246_1713449217_3050050523_1713449217" to="159252246_3050050523_3050050521_3050050523" />
	<connection from="159252246_1713449217_3050050523_1713449217" to="300903716_3050050523_3050050524_3050050523" />
	<connection from="159252246_1713449217_3050050523_1713449217" to="159252246_3050050523_1713449217_3050050523" />
	<connection from="300876526_3049680367_3049680369_3049680367" to="300876526_3049680367_3049680369_3049680370" />
	<connection from="300876526_3049680367_3049680369_3049680370" to="300876516_3049680369_3049680361_3049680369" />
	<connection from="300876526_3049680367_3049680369_3049680370" to="300876526_3049680369_3049680367_3049680369" />
	<connection from="300876526_3049680367_3049680369_3049680370" to="300876526_3049680369_3049680365_3049680369" />
	<connection from="159252246_3050048758_3050040922_3050048758" to="159252246_3050040922_3050048758_3050040922" />
	<connection from="159252246_3050048758_3050040922_3050048758" to="159252246_3050040922_3050048750_3050040922" />
	<connection from="159252246_3050048758_3050040922_3050048758" to="300901775_3050040922_3050040923_3050040922" />
	<connection from="185306860_1958716085_1958716074_1958716085" to="185306860_1958716074_1958716078_1958716074" />
	<connection from="185306860_1958716085_1958716074_1958716085" to="185306860_1958716074_1958716085_1958716074" />
	<connection from="185306860_1958716085_1958716073_1958716085" to="185306860_1958716073_1958716085_1958716073" />
	<connection from="185306860_1958716085_1958716073_1958716085" to="185306867_1958716073_1958716074_1958716073" />
	<connection from="185306860_1958716085_1958716073_1958716085" to="185306860_1958716073_1958716071_1958716073" />
	<connection from="159252246_3050048758_3050040924_3050048758" to="159252246_3050040924_3050048762_3050040924" />
	<connection from="159252246_3050048758_3050040924_3050048758" to="300901776_3050040924_3050040925_3050040924" />
	<connection from="159252246_3050048758_3050040924_3050048758" to="159252246_3050040924_3050048758_3050040924" />
	<connection from="185306860_1958716085_1958716071_1958716085" to="185306860_1958716071_1958716073_1958716071" />
	<connection from="185306860_1958716085_1958716071_1958716085" to="185306860_1958716071_1958716085_1958716071" />
	<connection from="185306860_1958716085_1958716071_1958716085" to="185307993_1958716071_563003252_1958716071" />
	<connection from="300876520_3049675732_4962322796_3049675732" to="300876520_3049675732_4962322796_3049680339" />
	<connection from="300876520_3049675732_4962322796_3049680339" to="300876520_3049675732_4962322796_3049680345" />
	<connection from="300876520_3049675732_4962322796_3049680345" to="300876520_3049675732_4962322796_3049680353" />
	<connection from="300876520_3049675732_4962322796_3049680353" to="300876520_4962322796_3049675732_4962322796" />
	<connection from="300876520_3049675732_4962322796_3049680353" to="300876521_4962322796_4962322801_4962322796" />
	<connection from="300876520_3049675732_4962322796_3049680353" to="300876521_4962322796_3049680333_4962322796" />
	<connection from="300875308_563003471_1713449123_563003471" to="300875308_563003471_1713449123_563003463" />
	<connection from="300875308_563003471_1713449123_563003463" to="300875308_563003471_1713449123_563003453" />
	<connection from="300875308_563003471_1713449123_563003453" to="300875308_1713449123_563003471_1713449123" />
	<connection from="300875308_563003471_1713449123_563003453" to="300875308_1713449123_3050297710_1713449123" />
	<connection from="300875308_563003471_1713449123_563003453" to="159252233_1713449123_1761411970_1713449123" />
	<connection from="300898062_3050001455_3050001477_3050001455" to="300898062_3050001455_3050001477_3050001456" />
	<connection from="300898062_3050001455_3050001477_3050001456" to="300898062_3050001455_3050001477_3050001457" />
	<connection from="300898062_3050001455_3050001477_3050001457" to="300898062_3050001455_3050001477_3050001458" />
	<connection from="300898062_3050001455_3050001477_3050001458" to="300898062_3050001455_3050001477_3050001459" />
	<connection from="300898062_3050001455_3050001477_3050001459" to="300898062_3050001455_3050001477_3050001469" />
	<connection from="300898062_3050001455_3050001477_3050001469" to="300898062_3050001455_3050001477_3050001475" />
	<connection from="300898062_3050001455_3050001477_3050001475" to="300898061_3050001477_4962323023_3050001477" />
	<connection from="300898062_3050001455_3050001477_3050001475" to="300898062_3050001477_3050001455_3050001477" />
	<connection from="300898062_3050001455_3050001477_3050001475" to="300898061_3050001477_3050001480_3050001477" />
	<connection from="159252271_563003380_1713449368_563003380" to="159252271_563003380_1713449368_3050399649" />
	<connection from="159252271_563003380_1713449368_3050399649" to="300876524_1713449368_3049680360_1713449368" />
	<connection from="159252271_563003380_1713449368_3050399649" to="300876524_1713449368_3050509159_1713449368" />
	<connection from="159252271_563003380_1713449368_3050399649" to="159252271_1713449368_563003380_1713449368" />
	<connection from="159252271_563003380_1713449368_3050399649" to="159252271_1713449368_7693168842_1713449368" />
	<connection from="159252763_3050343745_1713449149_3050343745" to="159252763_3050343745_1713449149_3050442976" />
	<connection from="159252763_3050343745_1713449149_3050442976" to="159252763_1713449149_1761411381_1713449149" />
	<connection from="159252763_3050343745_1713449149_3050442976" to="159252259_1713449149_3050050475_1713449149" />
	<connection from="159252763_3050343745_1713449149_3050442976" to="159252763_1713449149_3050343745_1713449149" />
	<connection from="301045500_3051555168_3051555166_3051555168" to="301045505_3051555166_3051555192_3051555166" />
	<connection from="300925768_3050286464_3050286463_3050286464" to="300925768_3050286463_3050286464_3050286463" />
	<connection from="300925768_3050286464_3050286463_3050286464" to="300926670_3050286463_1761411971_3050286463" />
	<connection from="300925768_3050286464_3050286463_3050286464" to="300926670_3050286463_3050298358_3050286463" />
	<connection from="300876521_4962322796_4962322801_4962322796" to="506510884_4962322801_4962322802_4962322801" />
	<connection from="300876521_4962322796_4962322801_4962322796" to="300876521_4962322801_4962322795_4962322801" />
	<connection from="300876521_4962322796_4962322801_4962322796" to="300876521_4962322801_4962322796_4962322801" />
	<connection from="300876521_4962322796_4962322801_4962322796" to="300876522_4962322801_3049675728_4962322801" />
	<connection from="159252233_1713449123_1761411970_1713449123" to="159252233_1761411970_1713449198_1761411970" />
	<connection from="159252233_1713449123_1761411970_1713449123" to="300926670_1761411970_3050537338_1761411970" />
	<connection from="159252233_1713449123_1761411970_1713449123" to="159252233_1761411970_1713449123_1761411970" />
	<connection from="159252241_1713449138_1713449134_1713449138" to="159252241_1713449134_1761412302_1713449134" />
	<connection from="159252241_1713449138_1713449134_1713449138" to="159252241_1713449134_1713449138_1713449134" />
	<connection from="159252241_1713449138_1713449134_1713449138" to="159252273_1713449134_3050985688_1713449134" />
	<connection from="300947027_3050537349_3050537338_3050537349" to="300947027_3050537349_3050537338_3050537348" />
	<connection from="300947027_3050537349_3050537338_3050537348" to="300947027_3050537338_3050537349_3050537338" />
	<connection from="300947027_3050537349_3050537338_3050537348" to="300926670_3050537338_1761411970_3050537338" />
	<connection from="300947027_3050537349_3050537338_3050537348" to="300926670_3050537338_1761411971_3050537338" />
	<connection from="300876517_3049680360_7693168858_3049680360" to="300876517_7693168858_3050509158_7693168858" />
	<connection from="300876517_3049680360_7693168858_3049680360" to="823981546_7693168858_7693168869_7693168858" />
	<connection from="300876517_3049680360_7693168858_3049680360" to="300876517_7693168858_3049680360_7693168858" />
	<connection from="165081933_1761375288_1761375185_1761375288" to="165081933_1761375185_1761375288_1761375185" />
	<connection from="165081933_1761375288_1761375185_1761375288" to="301041247_1761375185_1761374681_1761375185" />
	<connection from="165081933_1761375288_1761375185_1761375288" to="165081933_1761375185_1761375087_1761375185" />
	<connection from="164511336_1761411929_1761411381_1761411929" to="159252763_1761411381_1713449149_1761411381" />
	<connection from="164511336_1761411929_1761411381_1761411929" to="159252763_1761411381_3050848628_1761411381" />
	<connection from="823981545_7693168857_7693168876_7693168857" to="823981545_7693168857_7693168876_7693168856" />
	<connection from="823981545_7693168857_7693168876_7693168856" to="823981548_7693168876_7693168874_7693168876" />
	<connection from="823981545_7693168857_7693168876_7693168856" to="823981545_7693168876_7693168857_7693168876" />
	<connection from="823981545_7693168857_7693168876_7693168856" to="823981545_7693168876_7693168867_7693168876" />
	<connection from="159252760_1713456492_1713456620_1713456492" to="159252760_1713456492_1713456620_6040221543" />
	<connection from="159252760_1713456492_1713456620_6040221543" to="647844074_1713456620_6040221530_1713456620" />
	<connection from="159252760_1713456492_1713456620_6040221543" to="159252760_1713456620_6040221521_1713456620" />
	<connection from="159252246_3050048785_3050040932_3050048785" to="159252246_3050040932_3050048785_3050040932" />
	<connection from="159252246_3050048785_3050040932_3050048785" to="300901773_3050040932_3050041233_3050040932" />
	<connection from="159252246_3050048785_3050040932_3050048785" to="159252246_3050040932_3050048779_3050040932" />
	<connection from="159252241_1713449231_1713449196_1713449231" to="159252237_1713449196_1713449207_1713449196" />
	<connection from="159252241_1713449231_1713449196_1713449231" to="159252241_1713449196_1713449231_1713449196" />