<?xml version="1.0" ?>
<!-- Generated by VSimRTI -->
<routes>
	<vType id="default" length="7.5" maxSpeed="50" minGap="2.0" carFollowModel="Krauss" accel="0.80" decel="4.5" sigma="0.5" tau="1"/>
	<route id="1" edges="185498555_1960969686_1960969580_1960969531 185498555_1960969686_1960969580_1960969657 185498555_1960969686_1960969580_1960969568 185498555_1960969686_1960969580_1960969691 185498555_1960969686_1960969580_1960969566 185498555_1960969686_1960969580_1960996598 185498555_1960969686_1960969580_1960996600 185498555_1960969686_1960969580_1960969779 185498553_1960969580_1960969572_1960969580 185498553_1960969580_1960969572_1960969546 185498553_1960969580_1960969572_1960969663 185498553_1960969580_1960969572_1960969590 185498549_1960969572_563010908_1960969572 185498549_1960969572_563010908_1960969696 159252259_563010908_1713449182_563010908 159252259_563010908_1713449182_563010894 159252259_563010908_1713449182_563010885 159252259_563010908_1713449182_563010875 159252259_563010908_1713449182_563010865 159252259_563010908_1713449182_563010858 159252259_563010908_1713449182_563003562 159252259_1713449182_1713449274_1713449182 159252259_1713449274_1960969791_1713449274 159252259_1713449274_1960969791_563003540 185498542_1960969791_1713449207_1960969791 185498542_1960969791_1713449207_1960969529 159252237_1713449207_1713449196_1713449207 159252237_1713449207_1713449196_1713449348 159252237_1713449207_1713449196_1713449218 159252241_1713449196_1713449191_1713449196 159252241_1713449191_3050985691_1713449191 159252241_3050985691_1713449138_3050985691 159252241_1713449138_1713449134_1713449138 159252241_1713449134_1761412302_1713449134 159252241_1713449134_1761412302_3050979121 159252241_1761412302_1713449206_1761412302 159252241_1713449206_3049707647_1713449206 159252241_3049707647_1713449220_3049707647 159252241_1713449220_1713449287_1713449220 159252241_1713449287_3051586880_1713449287 159252241_3051586880_563003314_3051586880 159252241_3051586880_563003314_1713449119 159252763_563003314_563003308_563003314 159252763_563003314_563003308_1961268893 159252763_563003314_563003308_3050066601 159252763_563003308_3050066604_563003308 159252763_563003308_3050066604_3051572447 159252763_563003308_3050066604_3051572456 159252763_563003308_3050066604_563003302 159252763_3050066604_1713456440_3050066604 159252760_1713456440_1713456460_1713456440 159252760_1713456440_1713456460_1713456575 159252760_1713456440_1713456460_1713456484 159252760_1713456460_1713456492_1713456460 159252760_1713456460_1713456492_1713456601 159252760_1713456492_1713456620_1713456492 159252760_1713456492_1713456620_6040221543 159252760_1713456620_6040221521_1713456620 159252760_1713456620_6040221521_1713456428 159252760_1713456620_6040221521_1713456376 159252760_1713456620_6040221521_1713456416 159252760_1713456620_6040221521_1713456490 159252760_6040221521_1713456551_6040221521 159252760_6040221521_1713456551_6040221535 159252760_6040221521_1713456551_6040221522 300879087_1713456551_3049615314_1713456551 300879091_3049615314_3049711944_3049615314 300879091_3049615314_3049711944_562964321 300879094_3049711944_3049711940_3049711944 300879094_3049711944_3049711940_3049711943 300879094_3049711944_3049711940_3049711942 300879094_3049711944_3049711940_3049711941 300879092_3049711940_563003078_3049711940 300879092_563003078_3049711939_563003078 300879093_3049711939_3049711937_3049711939 300879093_3049711939_3049711937_3049711938 300879089_3049711937_1112481003_3049711937 300879089_3049711937_1112481003_3049711935 96021074_1112481003_1112481033_1112481003 96021074_1112481033_6040290555_1112481033 96021074_1112481033_6040290555_6040290557 96021074_1112481033_6040290555_3050584592 96021074_1112481033_6040290555_6040290558 96021074_1112481033_6040290555_6040290559 708080405_6040290555_3051541122_6040290555 300879271_3051541122_1112481002_3051541122 300879271_3051541122_1112481002_6040290554 300918281_1112481002_1713449113_1112481002 300918281_1112481002_1713449113_3050208426 300918281_1112481002_1713449113_3050208424 300918281_1112481002_1713449113_6040290553 96021069_1713449113_1112481056_1713449113 96021069_1713449113_1112481056_1112481000 96021069_1713449113_1112481056_1112481010 96021069_1713449113_1112481056_6040221526 96021069_1713449113_1112481056_6040221527 96021069_1713449113_1112481056_1112481022 96021069_1713449113_1112481056_6040221528 96021069_1713449113_1112481056_1112481034 96021069_1713449113_1112481056_6040221523 96021069_1713449113_1112481056_1713449143 96021069_1713449113_1112481056_6040221524 96021069_1713449113_1112481056_1112481042 300892257_1112481056_958731940_1112481056 300892257_1112481056_958731940_3049929468 300892257_1112481056_958731940_3049929467 300892257_1112481056_958731940_3049929465 300892254_958731940_3049929464_958731940 300876512_3049929464_3049680388_3049929464 300892256_3049680388_3049929463_3049680388 300892256_3049680388_3049929463_1114675362 300876513_3049929463_3049680377_3049929463 300876527_3049680377_3049680359_3049680377 300876527_3049680377_3049680359_3049929461 300876527_3049680377_3049680359_3049680368 300876527_3049680377_3049680359_3049680363 506510886_3049680359_4962322803_3049680359 506510886_4962322803_4962322802_4962322803 506510886_4962322803_4962322802_6040264346 506510886_4962322803_4962322802_4962322805 506510886_4962322803_4962322802_4962322806 506510886_4962322802_4962322807_4962322802 506510886_4962322802_4962322807_4962322812 506510886_4962322802_4962322807_4962322813 506510886_4962322802_4962322807_4962322814 506510886_4962322807_4962322815_4962322807 506510886_4962322807_4962322815_4962322808 506510886_4962322807_4962322815_4962322809 506510886_4962322807_4962322815_4962322810 506510886_4962322807_4962322815_4962322811 506510886_4962322815_4962322794_4962322815 506510883_4962322794_3049680377_4962322794" />
	<route id="2" edges="506510883_4962322794_3049680377_958731832 506510883_4962322794_3049680377_4962323031 300876513_3049680377_3049929463_3049680377 300892256_3049929463_3049680388_3049929463 300892256_3049929463_3049680388_1114675362 300876512_3049680388_3049929464_3049680388 300892254_3049929464_958731940_3049929464 300892258_958731940_1713449115_958731940 300892258_958731940_1713449115_3049929466 300892258_958731940_1713449115_3049929469 300892258_958731940_1713449115_3049929470 96021069_1713449115_1112481036_1713449115 300918282_1112481036_3051555177_1112481036 300918282_1112481036_3051555177_3050208421 300918282_1112481036_3051555177_3050208423 300918282_3051555177_1112481002_3051555177 300879271_1112481002_3051541122_1112481002 300879271_1112481002_3051541122_6040290554 300879270_3051541122_1112481021_3051541122 300879270_3051541122_1112481021_3050584591 96021074_1112481021_1112481014_1112481021 96021074_1112481021_1112481014_6040290562 300879268_1112481014_1114682721_1112481014 300879266_1114682721_3050882400_1114682721 300879266_1114682721_3050882400_1114682711 300879266_1114682721_3050882400_1114682718 300879266_3050882400_3050882395_3050882400 300879266_3050882395_1713449163_3050882395 300879266_3050882395_1713449163_6040290552 300879266_3050882395_1713449163_1114682706 300879266_3050882395_1713449163_1114682719 300879266_3050882395_1713449163_1114682722 300879266_3050882395_1713449163_1114682708 300929757_1713449163_1713449347_1713449163 300929757_1713449163_1713449347_1114682713 300929757_1713449347_1761412089_1713449347 300929757_1713449347_1761412089_3050066598 300929757_1761412089_1713449190_1761412089 300929757_1713449190_1761412217_1713449190 300929757_1761412217_3050371531_1761412217 300929757_3050371531_1713449216_3050371531 300929757_3050371531_1713449216_3050066599 300929757_1713449216_3050345202_1713449216 300929757_1713449216_3050345202_1114682720 300929757_3050345202_3050343745_3050345202 159252763_3050343745_1713449117_3050343745 159252763_3050343745_1713449117_563003363 159252763_1713449117_563003380_1713449117 159252763_1713449117_563003380_563003371 159252271_563003380_1713449345_563003380 300876807_1713449345_3050316825_1713449345 300876807_1713449345_3050316825_3050515808 300876807_3050316825_1713449273_3050316825 300876807_1713449273_3050326254_1713449273 300876807_3050326254_3050326247_3050326254 300876807_3050326247_3050326242_3050326247 300876807_3050326242_3049952224_3050326242 300876807_3049952224_3049953751_3049952224 300876807_3049953751_1713449129_3049953751 300876807_3049953751_1713449129_3735878249 300876807_3049953751_1713449129_1713449126 300876807_3049953751_1713449129_1713449161 300876807_1713449129_3049953751_1713449129 300876807_1713449129_3049953751_1713449161 300876807_1713449129_3049953751_1713449126 300876807_1713449129_3049953751_3735878249" />
	<route id="3" edges="300879533_1713569903_3049717249_3049624814 300879533_1713569903_3049717249_3049624813 300879533_1713569903_3049717249_562964342 300879533_3049717249_3049717241_3049717249 300879533_3049717249_3049717241_3049624803 300879533_3049717249_3049717241_3049717243 300879533_3049717241_3049717236_3049717241 300879533_3049717241_3049717236_562964338 300879533_3049717241_3049717236_3051042909 300879533_3049717241_3049717236_562964327 159252774_3049717236_6040221540_3049717236 641348152_6040221540_1713456620_6040221540 641348152_6040221540_1713456620_6040221539 641348152_6040221540_1713456620_6040221538 641348152_6040221540_1713456620_6040221537 641348152_6040221540_1713456620_6040221536 159252760_1713456620_6040221521_1713456620 159252760_1713456620_6040221521_1713456428 159252760_1713456620_6040221521_1713456376 159252760_1713456620_6040221521_1713456416 159252760_1713456620_6040221521_1713456490 159252760_6040221521_1713456551_6040221521 159252760_6040221521_1713456551_6040221535 159252760_6040221521_1713456551_6040221522 159252760_1713456551_1713456545_1713456551 159252760_1713456551_1713456545_1713456442 159252760_1713456551_1713456545_3049711945 159252760_1713456551_1713456545_6040221542 159252760_1713456545_6040221544_1713456545 159252760_1713456545_6040221544_1713456529 641348153_6040221544_3050066604_6040221544 641348153_6040221544_3050066604_6040221545 641348153_6040221544_3050066604_6040221546 159252763_3050066604_563003308_3050066604 159252763_3050066604_563003308_563003302 159252763_3050066604_563003308_3051572456 159252763_3050066604_563003308_3051572447 159252763_563003308_563003314_563003308 159252763_563003308_563003314_3050066601 159252763_563003308_563003314_1961268893 159252763_563003314_1761412035_563003314 159252763_563003314_1761412035_1961268811 159252763_563003314_1761412035_563003323 159252763_563003314_1761412035_3050916871 159252763_563003314_1761412035_563003330 159252763_1761412035_3050848628_1761412035 159252763_1761412035_3050848628_563003338 159252763_3050848628_1761411381_3050848628 159252763_3050848628_1761411381_3049954280 159252763_3050848628_1761411381_563003347 159252763_1761411381_1713449149_1761411381 159252763_1761411381_1713449149_3050874059 159252763_1761411381_1713449149_3050874053 159252763_1761411381_1713449149_563003356 159252259_1713449149_3050050475_1713449149 159252259_3050050475_1713449304_3050050475 159252246_1713449304_3050048795_1713449304 159252246_1713449304_3050048795_3050343746 159252246_3050048795_3050048791_3050048795 159252246_3050048791_3049652739_3050048791 159252246_3049652739_3050048785_3049652739 159252246_3050048785_3050040932_3050048785 159252246_3050040932_3050048779_3050040932 159252246_3050048779_3050040930_3050048779 159252246_3050040930_3050048773_3050040930 159252246_3050048773_3050040928_3050048773 159252246_3050040928_3050048767_3050040928 159252246_3050048767_3050040926_3050048767 159252246_3050040926_3050048762_3050040926 159252246_3050048762_3050040924_3050048762 159252246_3050040924_3050048758_3050040924 159252246_3050048758_3050040922_3050048758 159252246_3050040922_3050048750_3050040922 159252246_3050048750_3050040920_3050048750 159252246_3050040920_3050048745_3050040920 159252246_3050048745_1713449217_3050048745 159252258_1713449217_3049669238_1713449217 159252258_3049669238_1713449147_3049669238 159252258_1713449147_3049669244_1713449147 159252258_3049669244_1713449111_3049669244 159252258_1713449111_1761411778_1713449111 159252258_1761411778_563003411_1761411778 159252271_563003411_3049669239_563003411 159252271_563003411_3049669239_563003394 159252271_563003411_3049669239_3049684335" />
	<route id="4" edges="300875492_3049669239_3049669244_3049669239 300875492_3049669239_3049669244_3049669240 300875492_3049669239_3049669244_3049669246 300875492_3049669239_3049669244_3049669247 300875492_3049669239_3049669244_3049669245 300875492_3049669239_3049669244_3049669242 300875492_3049669239_3049669244_3049669241 300875492_3049669239_3049669244_3049669243 159252258_3049669244_1713449147_3049669244 159252258_1713449147_3049669238_1713449147 159252258_3049669238_1713449217_3049669238 159252246_1713449217_3050048745_1713449217 159252246_3050048745_3050040920_3050048745 159252246_3050040920_3050048750_3050040920 159252246_3050048750_3050040922_3050048750 159252246_3050040922_3050048758_3050040922 159252246_3050048758_3050040924_3050048758 159252246_3050040924_3050048762_3050040924 159252246_3050048762_3050040926_3050048762 159252246_3050040926_3050048767_3050040926 159252246_3050048767_3050040928_3050048767 159252246_3050040928_3050048773_3050040928 159252246_3050048773_3050040930_3050048773 159252246_3050040930_3050048779_3050040930 159252246_3050048779_3050040932_3050048779 159252246_3050040932_3050048785_3050040932 159252246_3050048785_3049652739_3050048785 159252246_3049652739_3050048791_3049652739 159252246_3050048791_3050048795_3050048791 159252246_3050048795_1713449304_3050048795 159252246_3050048795_1713449304_3050343746 159252259_1713449304_3050050475_1713449304 159252259_3050050475_1713449149_3050050475 159252763_1713449149_1761411381_1713449149 159252763_1713449149_1761411381_563003356 159252763_1713449149_1761411381_3050874053 159252763_1713449149_1761411381_3050874059 159252763_1761411381_3050848628_1761411381 159252763_1761411381_3050848628_563003347 159252763_1761411381_3050848628_3049954280 159252763_3050848628_1761412035_3050848628 159252763_3050848628_1761412035_563003338 159252763_1761412035_563003314_1761412035 159252763_1761412035_563003314_563003330 159252763_1761412035_563003314_3050916871 159252763_1761412035_563003314_563003323 159252763_1761412035_563003314_1961268811 159252763_563003314_563003308_563003314 159252763_563003314_563003308_1961268893 159252763_563003314_563003308_3050066601 159252763_563003308_3050066604_563003308 159252763_563003308_3050066604_3051572447 159252763_563003308_3050066604_3051572456 159252763_563003308_3050066604_563003302 159252763_3050066604_1713456440_3050066604 159252760_1713456440_1713456460_1713456440 159252760_1713456440_1713456460_1713456575 159252760_1713456440_1713456460_1713456484 159252774_1713456460_6040221540_1713456460 159252774_1713456460_6040221540_562964323 159252774_1713456460_6040221540_3049717235 159252774_6040221540_3049717236_6040221540 300879533_3049717236_3049717241_3049717236 300879533_3049717236_3049717241_562964327 300879533_3049717236_3049717241_3051042909 300879533_3049717236_3049717241_562964338 300879533_3049717241_3049717249_3049717241 300879533_3049717241_3049717249_3049717243 300879533_3049717241_3049717249_3049624803 300879533_3049717249_1713569903_3049717249 300879533_3049717249_1713569903_562964342 300879533_3049717249_1713569903_3049624813 300879533_3049717249_1713569903_3049624814 300879533_3049717249_1713569903_562964350 300879533_3049717249_1713569903_6040221517 300879533_3049717249_1713569903_3049624816 300879533_3049717249_1713569903_562964352 300879533_3049717249_1713569903_3049624817 300879533_3049717249_1713569903_562964356 300879533_1713569903_3049717249_1713569903 300879533_1713569903_3049717249_562964356 300879533_1713569903_3049717249_3049624817 300879533_1713569903_3049717249_562964352 300879533_1713569903_3049717249_3049624816 300879533_1713569903_3049717249_6040221517 300879533_1713569903_3049717249_562964350" />
	<route id="5" edges="96021069_1713449113_1112481056_6040221527 96021069_1713449113_1112481056_1112481022 96021069_1713449113_1112481056_6040221528 96021069_1713449113_1112481056_1112481034 96021069_1713449113_1112481056_6040221523 96021069_1713449113_1112481056_1713449143 96021069_1713449113_1112481056_6040221524 96021069_1713449113_1112481056_1112481042 96021069_1112481056_958731756_1112481056 96021069_958731756_1713449115_958731756 96021069_958731756_1713449115_1713449227 96021069_958731756_1713449115_6040221529 96021069_1713449115_1112481036_1713449115 300918282_1112481036_3051555177_1112481036 300918282_1112481036_3051555177_3050208421 300918282_1112481036_3051555177_3050208423 300918282_3051555177_1112481002_3051555177 300879271_1112481002_3051541122_1112481002 300879271_1112481002_3051541122_6040290554 300879270_3051541122_1112481021_3051541122 300879270_3051541122_1112481021_3050584591 96021074_1112481021_1112481014_1112481021 96021074_1112481021_1112481014_6040290562 300879268_1112481014_1114682721_1112481014 300879266_1114682721_3050882400_1114682721 300879266_1114682721_3050882400_1114682711 300879266_1114682721_3050882400_1114682718 300879266_3050882400_3050882395_3050882400 300879266_3050882395_1713449163_3050882395 300879266_3050882395_1713449163_6040290552 300879266_3050882395_1713449163_1114682706 300879266_3050882395_1713449163_1114682719 300879266_3050882395_1713449163_1114682722 300879266_3050882395_1713449163_1114682708 300929757_1713449163_1713449347_1713449163 300929757_1713449163_1713449347_1114682713 300929757_1713449347_1761412089_1713449347 300929757_1713449347_1761412089_3050066598 300929757_1761412089_1713449190_1761412089 300929757_1713449190_1761412217_1713449190 300929757_1761412217_3050371531_1761412217 300929757_3050371531_1713449216_3050371531 300929757_3050371531_1713449216_3050066599 300929757_1713449216_3050345202_1713449216 300929757_1713449216_3050345202_1114682720 300929757_3050345202_3050343745_3050345202 159252763_3050343745_1713449117_3050343745 159252763_3050343745_1713449117_563003363 159252763_1713449117_563003380_1713449117 159252763_1713449117_563003380_563003371 159252271_563003380_1713449345_563003380 300876807_1713449345_3050316825_1713449345 300876807_1713449345_3050316825_3050515808 300876807_3050316825_1713449273_3050316825 300876807_1713449273_3050326254_1713449273 300876807_3050326254_3050326247_3050326254 300876807_3050326247_3050326242_3050326247 300876807_3050326242_3049952224_3050326242" />
	<route id="6" edges="300876807_3049952224_3049953751_3049952224 300876807_3049953751_3049952224_3049953751 300876807_3049952224_3050326242_3049952224 300876807_3050326242_3050326247_3050326242 300876807_3050326247_3050326254_3050326247 300876807_3050326254_1713449273_3050326254 300876807_1713449273_3050316825_1713449273 300876807_3050316825_1713449345_3050316825 300876807_3050316825_1713449345_3050515808 159252271_1713449345_563003380_1713449345 159252763_563003380_1713449117_563003380 159252763_563003380_1713449117_563003371 159252763_1713449117_3050343745_1713449117 159252763_1713449117_3050343745_563003363 159252763_3050343745_1713449149_3050343745 159252763_3050343745_1713449149_3050442976 159252763_1713449149_1761411381_1713449149 159252763_1713449149_1761411381_563003356 159252763_1713449149_1761411381_3050874053 159252763_1713449149_1761411381_3050874059 159252763_1761411381_3050848628_1761411381 159252763_1761411381_3050848628_563003347 159252763_1761411381_3050848628_3049954280 159252763_3050848628_1761412035_3050848628 159252763_3050848628_1761412035_563003338 159252763_1761412035_563003314_1761412035 159252763_1761412035_563003314_563003330 159252763_1761412035_563003314_3050916871 159252763_1761412035_563003314_563003323 159252763_1761412035_563003314_1961268811 159252763_563003314_563003308_563003314 159252763_563003314_563003308_1961268893 159252763_563003314_563003308_3050066601 159252763_563003308_3050066604_563003308 159252763_563003308_3050066604_3051572447 159252763_563003308_3050066604_3051572456 159252763_563003308_3050066604_563003302 159252763_3050066604_1713456440_3050066604 159252760_1713456440_1713456460_1713456440 159252760_1713456440_1713456460_1713456575 159252760_1713456440_1713456460_1713456484 159252774_1713456460_6040221540_1713456460 159252774_1713456460_6040221540_562964323 159252774_1713456460_6040221540_3049717235 159252774_6040221540_3049717236_6040221540 300879533_3049717236_3049717241_3049717236 300879533_3049717236_3049717241_562964327 300879533_3049717236_3049717241_3051042909 300879533_3049717236_3049717241_562964338 300879533_3049717241_3049717249_3049717241 300879533_3049717241_3049717249_3049717243 300879533_3049717241_3049717249_3049624803 300879533_3049717249_1713569903_3049717249 300879533_3049717249_1713569903_562964342 300879533_3049717249_1713569903_3049624813 300879533_3049717249_1713569903_3049624814 300879533_3049717249_1713569903_562964350 300879533_3049717249_1713569903_6040221517 300879533_3049717249_1713569903_3049624816 300879533_3049717249_1713569903_562964352 300879533_3049717249_1713569903_3049624817 300879533_3049717249_1713569903_562964356 300879533_1713569903_3049717249_1713569903 300879533_1713569903_3049717249_562964356 300879533_1713569903_3049717249_3049624817" />
</routes>