<?xml version="1.0" ?>
<!-- Generated by VSimRTI -->
<routes>
	<vType id="default" length="7.5" maxSpeed="50" minGap="2.0" carFollowModel="Krauss" accel="0.80" decel="4.5" sigma="0.5" tau="1"/>
	<route id="1" edges="195837886_2062531405_1236745786_2062531405 195837886_2062531405_1236745786_2062531524 195837886_2062531405_1236745786_2444550029 195837886_2062531405_1236745786_2062531540 195837886_2062531405_1236745786_2062531521 195837886_2062531405_1236745786_2444550039 195837886_2062531405_1236745786_2444550044 195837886_2062531405_1236745786_2062531527 195837886_2062531405_1236745786_2444550041 195837886_2062531405_1236745786_2062531529 195837886_2062531405_1236745786_2444550032 195837886_2062531405_1236745786_2062531525 195837886_2062531405_1236745786_2444550035 195837886_2062531405_1236745786_2062531523 195837886_2062531405_1236745786_2062531536 195837886_2062531405_1236745786_2444550030 195837886_2062531405_1236745786_2062531530 195837886_2062531405_1236745786_2444550038 195837886_2062531405_1236745786_2062531526 195837886_2062531405_1236745786_2444550036 195837886_2062531405_1236745786_2444550033 195837886_2062531405_1236745786_2062531532 726993354_1236745786_1236745828_1236745786 726993354_1236745786_1236745828_2444554783 726993354_1236745786_1236745828_1236745750 726993354_1236745786_1236745828_2444554782 726993354_1236745786_1236745828_1236746021 726993354_1236745786_1236745828_1236745820 726993354_1236745786_1236745828_1236746071 726993354_1236745786_1236745828_1236746047 726993354_1236745786_1236745828_1236745945 726993354_1236745786_1236745828_1236746094 726993354_1236745786_1236745828_1236745999 726993354_1236745786_1236745828_1236745971 726993354_1236745786_1236745828_1236745853 726993354_1236745786_1236745828_1236745961 726993354_1236745786_1236745828_1236745840 726993354_1236745786_1236745828_1236745804 726993354_1236745786_1236745828_1236746061 726993354_1236745786_1236745828_1236745875 726993354_1236745786_1236745828_1236745742 726993354_1236745786_1236745828_1236746083 726993354_1236745786_1236745828_1236745985 726993354_1236745786_1236745828_1236745778 726993354_1236745786_1236745828_1236746043 726993354_1236745786_1236745828_1236746014 726993354_1236745786_1236745828_1236745911 726993354_1236745786_1236745828_1236746066 726993354_1236745786_1236745828_1236745966 726993354_1236745786_1236745828_1236745940 726993354_1236745786_1236745828_1236745813 726993354_1236745786_1236745828_1236745928 726993354_1236745786_1236745828_1236745797 726993354_1236745786_1236745828_1236745764 726993354_1236745786_1236745828_1236746032 726993354_1236745786_1236745828_1236745832 726993354_1236745786_1236745828_1236746078 726993354_1236745786_1236745828_1236746055 726993354_1236745786_1236745828_1236745953 726993354_1236745786_1236745828_1236745736 726993354_1236745786_1236745828_1236746009 726993354_1236745786_1236745828_1236745980 726993354_1236745786_1236745828_2444554781 726993354_1236745786_1236745828_1236745868 726993354_1236745786_1236745828_1236746038 726993354_1236745786_1236745828_1236745934 726993354_1236745786_1236745828_1236745904 726993354_1236745786_1236745828_1236745773 726993354_1236745786_1236745828_1236745888 726993354_1236745786_1236745828_1236745756 726993354_1236745786_1236745828_1236746092 726993354_1236745786_1236745828_1236745996 726993354_1236745786_1236745828_1236745791 726993354_1236745786_1236745828_1236746051 726993354_1236745786_1236745828_1236746026 726993354_1236745786_1236745828_1236745922 726993354_1236745786_1236745828_1236746074 726993354_1236745786_1236745828_1236745975 726993354_1236745786_1236745828_1236745949 726993354_1236745786_1236745828_1236745825 726993354_1236745786_1236745828_1236746003 726993354_1236745786_1236745828_1236745896 726993354_1236745786_1236745828_1236745860 726993354_1236745786_1236745828_1236746097 726993354_1236745786_1236745828_1236746057 726993354_1236745786_1236745828_1236745957 726993354_1236745786_1236745828_1236745931 726993354_1236745786_1236745828_1236745800 726993354_1236745786_1236745828_1236745982 726993354_1236745786_1236745828_1236745870 726993354_1236745786_1236745828_1236745835 726993354_1236745786_1236745828_1236746080 726993354_1236745786_1236745828_1236745907 726993354_1236745786_1236745828_1236745775 726993354_1236745786_1236745828_1236745738 726993354_1236745786_1236745828_1236746011 726993354_1236745786_1236745828_1236745810 726993354_1236745786_1236745828_1236746064 726993354_1236745786_1236745828_1236746041 726993354_1236745786_1236745828_1236745937 726993354_1236745786_1236745828_1236746029 726993354_1236745786_1236745828_1236745925 726993354_1236745786_1236745828_1236745891 726993354_1236745786_1236745828_1236745759 726993354_1236745786_1236745828_1236745951 726993354_1236745828_1236745786_1236745828 726993354_1236745828_1236745786_1236745951 726993354_1236745828_1236745786_1236745759 726993354_1236745828_1236745786_1236745891 726993354_1236745828_1236745786_1236745925 726993354_1236745828_1236745786_1236746029 726993354_1236745828_1236745786_1236745937 726993354_1236745828_1236745786_1236746041 726993354_1236745828_1236745786_1236746064 726993354_1236745828_1236745786_1236745810 726993354_1236745828_1236745786_1236746011 726993354_1236745828_1236745786_1236745738 726993354_1236745828_1236745786_1236745775 726993354_1236745828_1236745786_1236745907 726993354_1236745828_1236745786_1236746080 726993354_1236745828_1236745786_1236745835 726993354_1236745828_1236745786_1236745870 726993354_1236745828_1236745786_1236745982 726993354_1236745828_1236745786_1236745800 726993354_1236745828_1236745786_1236745931 726993354_1236745828_1236745786_1236745957 726993354_1236745828_1236745786_1236746057 726993354_1236745828_1236745786_1236746097 726993354_1236745828_1236745786_1236745860 726993354_1236745828_1236745786_1236745896 726993354_1236745828_1236745786_1236746003 726993354_1236745828_1236745786_1236745825 726993354_1236745828_1236745786_1236745949 726993354_1236745828_1236745786_1236745975 726993354_1236745828_1236745786_1236746074 726993354_1236745828_1236745786_1236745922 726993354_1236745828_1236745786_1236746026 726993354_1236745828_1236745786_1236746051 726993354_1236745828_1236745786_1236745791 726993354_1236745828_1236745786_1236745996 726993354_1236745828_1236745786_1236746092 726993354_1236745828_1236745786_1236745756 726993354_1236745828_1236745786_1236745888 726993354_1236745828_1236745786_1236745773 726993354_1236745828_1236745786_1236745904 726993354_1236745828_1236745786_1236745934 726993354_1236745828_1236745786_1236746038 726993354_1236745828_1236745786_1236745868 726993354_1236745828_1236745786_2444554781 726993354_1236745828_1236745786_1236745980 726993354_1236745828_1236745786_1236746009 726993354_1236745828_1236745786_1236745736 726993354_1236745828_1236745786_1236745953 726993354_1236745828_1236745786_1236746055 726993354_1236745828_1236745786_1236746078 726993354_1236745828_1236745786_1236745832 726993354_1236745828_1236745786_1236746032 726993354_1236745828_1236745786_1236745764 726993354_1236745828_1236745786_1236745797 726993354_1236745828_1236745786_1236745928 726993354_1236745828_1236745786_1236745813 726993354_1236745828_1236745786_1236745940 726993354_1236745828_1236745786_1236745966 726993354_1236745828_1236745786_1236746066 726993354_1236745828_1236745786_1236745911 726993354_1236745828_1236745786_1236746014 726993354_1236745828_1236745786_1236746043 726993354_1236745828_1236745786_1236745778 726993354_1236745828_1236745786_1236745985 726993354_1236745828_1236745786_1236746083 726993354_1236745828_1236745786_1236745742 726993354_1236745828_1236745786_1236745875 726993354_1236745828_1236745786_1236746061 726993354_1236745828_1236745786_1236745804 726993354_1236745828_1236745786_1236745840 726993354_1236745828_1236745786_1236745961 726993354_1236745828_1236745786_1236745853 726993354_1236745828_1236745786_1236745971 726993354_1236745828_1236745786_1236745999 726993354_1236745828_1236745786_1236746094 726993354_1236745828_1236745786_1236745945 726993354_1236745828_1236745786_1236746047 726993354_1236745828_1236745786_1236746071 726993354_1236745828_1236745786_1236745820 726993354_1236745828_1236745786_1236746021 726993354_1236745828_1236745786_2444554782 726993354_1236745828_1236745786_1236745750 726993354_1236745828_1236745786_2444554783" />
	<route id="2" edges="726996230_2062531977_3154447938_2062531977 726996230_2062531977_3154447938_3154448088 726996230_3154447938_6504649769_3154447938 726996230_3154447938_6504649769_2062531930 726996230_3154447938_6504649769_3154447939 726996230_3154447938_6504649769_3154447943 726996230_3154447938_6504649769_2062531993 726996230_3154447938_6504649769_3154447934 726996230_6504649769_2062531967_6504649769 726996230_6504649769_2062531967_3154448077 726996230_6504649769_2062531967_2062531941 726996230_6504649769_2062531967_3154447957 726996230_6504649769_2062531967_3154448078 726996230_6504649769_2062531967_3154447933 726996230_2062531967_6504649734_2062531967 726996230_2062531967_6504649734_2062539240 726996230_2062531967_6504649734_3154449000 726996230_2062531967_6504649734_2062539253 726996230_2062531967_6504649734_3154448999 726996230_2062531967_6504649734_2062539242 726996230_6504649734_6504649733_6504649734 726996230_6504649733_1239883924_6504649733 726996230_6504649733_1239883924_2062539234 726996230_6504649733_1239883924_2062539238 195837892_1239883924_6177088919_1239883924 195837892_1239883924_6177088919_2062539230 195837892_1239883924_6177088919_2062539226 195837892_1239883924_6177088919_2062539224 195837892_6177088919_2062539248_6177088919 195837892_6177088919_2062539248_2062539232 195837892_6177088919_2062539248_2062539251 195837892_6177088919_2062539248_2669903393 195837892_2062539248_1937769548_2062539248 195837892_2062539248_1937769548_2062539246 195837892_2062539248_1937769548_2669903391 195837892_2062539248_1937769548_2062539236 195837892_2062539248_1937769548_2062539244 195837892_2062539248_1937769548_2062539228 195837892_1937769548_2062539248_1937769548 195837892_1937769548_2062539248_2062539228 195837892_1937769548_2062539248_2062539244 195837892_1937769548_2062539248_2062539236 195837892_1937769548_2062539248_2669903391 195837892_1937769548_2062539248_2062539246" />
	<route id="3" edges="659675637_6275084398_2669903367_6176268142 659675637_6275084398_2669903367_2669903386 659675637_6275084398_2669903367_2669903384 659675637_6275084398_2669903367_2669903382 659675637_6275084398_2669903367_2669903380 659675637_6275084398_2669903367_2669903377 659675637_6275084398_2669903367_2669903375 659675637_6275084398_2669903367_2625750950 659675637_6275084398_2669903367_2669903373 659675637_6275084398_2669903367_2669903322 659675637_6275084398_2669903367_2669903371 659675637_6275084398_2669903367_2669903369 659675624_2669903367_2669903365_2669903367 659675639_2669903365_6176268120_2669903365 659675639_2669903365_6176268120_6176268119 659675625_6176268120_6176268106_6176268120 659675625_6176268120_6176268106_6176268121 659675625_6176268120_6176268106_6176268122 659675625_6176268120_6176268106_6176268105 659675633_6176268106_6176268115_6176268106 659675633_6176268106_6176268115_6176268107 659675633_6176268106_6176268115_6176268108 659675633_6176268106_6176268115_6176268113 659675633_6176268106_6176268115_6176268114 659675630_6176268115_1236745794_6176268115 659675631_1236745794_2669903323_1236745794 659675631_1236745794_2669903323_1236746053 659675631_1236745794_2669903323_2669903359 659675631_1236745794_2669903323_1236745863 659675631_2669903323_1236746088_2669903323 659675631_2669903323_1236746088_1236745732 659675631_2669903323_1236746088_1236746076 659675631_2669903323_1236746088_1236745977 659675631_2669903323_1236746088_1236745767 659675631_2669903323_1236746088_1236746035 659675631_2669903323_1236746088_1236746006 659675631_2669903323_1236746088_1236745901 659675631_2669903323_1236746088_1236745991 659675631_2669903323_1236746088_1236745883" />
	<route id="4" edges="659675631_1236746088_2669903323_1236746088 659675631_1236746088_2669903323_1236745883 659675631_1236746088_2669903323_1236745991 659675631_1236746088_2669903323_1236745901 659675631_1236746088_2669903323_1236746006 659675631_1236746088_2669903323_1236746035 659675631_1236746088_2669903323_1236745767 659675631_1236746088_2669903323_1236745977 659675631_1236746088_2669903323_1236746076 659675631_1236746088_2669903323_1236745732 659675631_2669903323_1236745794_2669903323 659675631_2669903323_1236745794_1236745863 659675631_2669903323_1236745794_2669903359 659675631_2669903323_1236745794_1236746053 659675627_1236745794_6176268109_1236745794 659675635_6176268109_6176268111_6176268109 659675635_6176268109_6176268111_6176268110 659675636_6176268111_2669903367_6176268111 659675637_2669903367_6275084398_2669903367 659675637_2669903367_6275084398_2669903369 659675637_2669903367_6275084398_2669903371 659675637_2669903367_6275084398_2669903322 659675637_2669903367_6275084398_2669903373 659675637_2669903367_6275084398_2625750950 659675637_2669903367_6275084398_2669903375 659675637_2669903367_6275084398_2669903377 659675637_2669903367_6275084398_2669903380 659675637_2669903367_6275084398_2669903382 659675637_2669903367_6275084398_2669903384 659675637_2669903367_6275084398_2669903386 659675637_2669903367_6275084398_6176268142 659675637_6275084398_2669903367_6275084398" />
	<route id="5" edges="107987340_1239883923_354969859_1239883923 107987340_1239883923_354969859_1239883922 107987340_1239883923_354969859_1239883921 107987340_1239883923_354969859_1239883919 107987340_1239883923_354969859_1239883920 107987340_1239883923_354969859_1239883912 107987340_354969859_1239883923_354969859 107987340_354969859_1239883923_1239883912 107987340_354969859_1239883923_1239883920 107987340_354969859_1239883923_1239883919 107987340_354969859_1239883923_1239883921 107987340_354969859_1239883923_1239883922 107987340_1239883923_1239883924_1239883923 107987340_1239883923_1239883924_1239883940 107987340_1239883923_1239883924_1239883939 107987340_1239883923_1239883924_1239883938 107987340_1239883923_1239883924_1239897970 107987340_1239883923_1239883924_1239883911 107987340_1239883923_1239883924_1239883933 107987340_1239883923_1239883924_1239883932 107987340_1239883923_1239883924_1239883918 107987340_1239883923_1239883924_1239883931 107987340_1239883923_1239883924_1239883937 107987340_1239883923_1239883924_1239883936 107987340_1239883923_1239883924_1239883935 107987340_1239883923_1239883924_1239883934 107987340_1239883923_1239883924_1239883917 107987340_1239883923_1239883924_1239883916 107987340_1239883923_1239883924_1239883915 107987340_1239883923_1239883924_1239883925 107987340_1239883923_1239883924_1239883910 726996230_1239883924_6504649733_1239883924 726996230_1239883924_6504649733_2062539238 726996230_1239883924_6504649733_2062539234 726996230_6504649733_6504649734_6504649733 726996230_6504649734_2062531967_6504649734 726996230_6504649734_2062531967_2062539242 726996230_6504649734_2062531967_3154448999 726996230_6504649734_2062531967_2062539253 726996230_6504649734_2062531967_3154449000 726996230_6504649734_2062531967_2062539240 726996230_2062531967_6504649769_2062531967 726996230_2062531967_6504649769_3154447933 726996230_2062531967_6504649769_3154448078 726996230_2062531967_6504649769_3154447957 726996230_2062531967_6504649769_2062531941 726996230_2062531967_6504649769_3154448077 726996230_6504649769_3154447938_6504649769 726996230_6504649769_3154447938_3154447934 726996230_6504649769_3154447938_2062531993 726996230_6504649769_3154447938_3154447943 726996230_6504649769_3154447938_3154447939 726996230_6504649769_3154447938_2062531930 726996230_3154447938_2062531977_3154447938 726996230_3154447938_2062531977_3154448088 195837917_2062531977_2062531967_2062531977 195837917_2062531977_2062531967_2062534796 195837917_2062531977_2062531967_3154447946 195837917_2062531977_2062531967_3154447941 195837917_2062531977_2062531967_3154448087 195837917_2062531977_2062531967_2062534800 195837917_2062531977_2062531967_3154447937 195837917_2062531977_2062531967_2062534798 195837917_2062531977_2062531967_3154447932 195837917_2062531977_2062531967_3154448063 195837917_2062531977_2062531967_2062534803 195837917_2062531977_2062531967_3154447951 195837917_2062531977_2062531967_3154447958 195837917_2062531977_2062531967_2062534794 195837917_2062531977_2062531967_3154448083 195837917_2062531977_2062531967_2062536786 195837917_2062531977_2062531967_2062536792 195837917_2062531977_2062531967_2062536795 195837917_2062531977_2062531967_2062536789" />
	<route id="6" edges="659675624_2669903367_2669903365_2669903367 659675639_2669903365_6176268120_2669903365 659675639_2669903365_6176268120_6176268119 659675629_6176268120_1236745828_6176268120 726993354_1236745828_1236745786_1236745828 726993354_1236745828_1236745786_1236745951 726993354_1236745828_1236745786_1236745759 726993354_1236745828_1236745786_1236745891 726993354_1236745828_1236745786_1236745925 726993354_1236745828_1236745786_1236746029 726993354_1236745828_1236745786_1236745937 726993354_1236745828_1236745786_1236746041 726993354_1236745828_1236745786_1236746064 726993354_1236745828_1236745786_1236745810 726993354_1236745828_1236745786_1236746011 726993354_1236745828_1236745786_1236745738 726993354_1236745828_1236745786_1236745775 726993354_1236745828_1236745786_1236745907 726993354_1236745828_1236745786_1236746080 726993354_1236745828_1236745786_1236745835 726993354_1236745828_1236745786_1236745870 726993354_1236745828_1236745786_1236745982 726993354_1236745828_1236745786_1236745800 726993354_1236745828_1236745786_1236745931 726993354_1236745828_1236745786_1236745957 726993354_1236745828_1236745786_1236746057 726993354_1236745828_1236745786_1236746097 726993354_1236745828_1236745786_1236745860 726993354_1236745828_1236745786_1236745896 726993354_1236745828_1236745786_1236746003 726993354_1236745828_1236745786_1236745825 726993354_1236745828_1236745786_1236745949 726993354_1236745828_1236745786_1236745975 726993354_1236745828_1236745786_1236746074 726993354_1236745828_1236745786_1236745922 726993354_1236745828_1236745786_1236746026 726993354_1236745828_1236745786_1236746051 726993354_1236745828_1236745786_1236745791 726993354_1236745828_1236745786_1236745996 726993354_1236745828_1236745786_1236746092 726993354_1236745828_1236745786_1236745756 726993354_1236745828_1236745786_1236745888 726993354_1236745828_1236745786_1236745773 726993354_1236745828_1236745786_1236745904 726993354_1236745828_1236745786_1236745934 726993354_1236745828_1236745786_1236746038 726993354_1236745828_1236745786_1236745868 726993354_1236745828_1236745786_2444554781 726993354_1236745828_1236745786_1236745980 726993354_1236745828_1236745786_1236746009 726993354_1236745828_1236745786_1236745736 726993354_1236745828_1236745786_1236745953 726993354_1236745828_1236745786_1236746055 726993354_1236745828_1236745786_1236746078 726993354_1236745828_1236745786_1236745832 726993354_1236745828_1236745786_1236746032 726993354_1236745828_1236745786_1236745764 726993354_1236745828_1236745786_1236745797 726993354_1236745828_1236745786_1236745928 726993354_1236745828_1236745786_1236745813 726993354_1236745828_1236745786_1236745940 726993354_1236745828_1236745786_1236745966 726993354_1236745828_1236745786_1236746066 726993354_1236745828_1236745786_1236745911 726993354_1236745828_1236745786_1236746014 726993354_1236745828_1236745786_1236746043 726993354_1236745828_1236745786_1236745778 726993354_1236745828_1236745786_1236745985 726993354_1236745828_1236745786_1236746083 726993354_1236745828_1236745786_1236745742 726993354_1236745828_1236745786_1236745875 726993354_1236745828_1236745786_1236746061 726993354_1236745828_1236745786_1236745804 726993354_1236745828_1236745786_1236745840 726993354_1236745828_1236745786_1236745961 726993354_1236745828_1236745786_1236745853 726993354_1236745828_1236745786_1236745971 726993354_1236745828_1236745786_1236745999 726993354_1236745828_1236745786_1236746094 726993354_1236745828_1236745786_1236745945 726993354_1236745828_1236745786_1236746047 726993354_1236745828_1236745786_1236746071 726993354_1236745828_1236745786_1236745820 726993354_1236745828_1236745786_1236746021 726993354_1236745828_1236745786_2444554782 726993354_1236745828_1236745786_1236745750 726993354_1236745828_1236745786_2444554783 726993354_1236745786_1236745828_1236745786 726993354_1236745786_1236745828_2444554783 726993354_1236745786_1236745828_1236745750 726993354_1236745786_1236745828_2444554782 726993354_1236745786_1236745828_1236746021 726993354_1236745786_1236745828_1236745820 726993354_1236745786_1236745828_1236746071 726993354_1236745786_1236745828_1236746047 726993354_1236745786_1236745828_1236745945 726993354_1236745786_1236745828_1236746094 726993354_1236745786_1236745828_1236745999 726993354_1236745786_1236745828_1236745971 726993354_1236745786_1236745828_1236745853 726993354_1236745786_1236745828_1236745961 726993354_1236745786_1236745828_1236745840 726993354_1236745786_1236745828_1236745804 726993354_1236745786_1236745828_1236746061 726993354_1236745786_1236745828_1236745875 726993354_1236745786_1236745828_1236745742 726993354_1236745786_1236745828_1236746083 726993354_1236745786_1236745828_1236745985 726993354_1236745786_1236745828_1236745778 726993354_1236745786_1236745828_1236746043 726993354_1236745786_1236745828_1236746014 726993354_1236745786_1236745828_1236745911 726993354_1236745786_1236745828_1236746066 726993354_1236745786_1236745828_1236745966 726993354_1236745786_1236745828_1236745940 726993354_1236745786_1236745828_1236745813 726993354_1236745786_1236745828_1236745928 726993354_1236745786_1236745828_1236745797 726993354_1236745786_1236745828_1236745764 726993354_1236745786_1236745828_1236746032 726993354_1236745786_1236745828_1236745832 726993354_1236745786_1236745828_1236746078 726993354_1236745786_1236745828_1236746055 726993354_1236745786_1236745828_1236745953 726993354_1236745786_1236745828_1236745736 726993354_1236745786_1236745828_1236746009 726993354_1236745786_1236745828_1236745980 726993354_1236745786_1236745828_2444554781 726993354_1236745786_1236745828_1236745868 726993354_1236745786_1236745828_1236746038 726993354_1236745786_1236745828_1236745934 726993354_1236745786_1236745828_1236745904 726993354_1236745786_1236745828_1236745773 726993354_1236745786_1236745828_1236745888 726993354_1236745786_1236745828_1236745756 726993354_1236745786_1236745828_1236746092 726993354_1236745786_1236745828_1236745996 726993354_1236745786_1236745828_1236745791 726993354_1236745786_1236745828_1236746051 726993354_1236745786_1236745828_1236746026 726993354_1236745786_1236745828_1236745922 726993354_1236745786_1236745828_1236746074 726993354_1236745786_1236745828_1236745975 726993354_1236745786_1236745828_1236745949 726993354_1236745786_1236745828_1236745825 726993354_1236745786_1236745828_1236746003 726993354_1236745786_1236745828_1236745896 726993354_1236745786_1236745828_1236745860 726993354_1236745786_1236745828_1236746097 726993354_1236745786_1236745828_1236746057 726993354_1236745786_1236745828_1236745957 726993354_1236745786_1236745828_1236745931 726993354_1236745786_1236745828_1236745800 726993354_1236745786_1236745828_1236745982 726993354_1236745786_1236745828_1236745870 726993354_1236745786_1236745828_1236745835 726993354_1236745786_1236745828_1236746080 726993354_1236745786_1236745828_1236745907 726993354_1236745786_1236745828_1236745775 726993354_1236745786_1236745828_1236745738 726993354_1236745786_1236745828_1236746011 726993354_1236745786_1236745828_1236745810 726993354_1236745786_1236745828_1236746064 726993354_1236745786_1236745828_1236746041 726993354_1236745786_1236745828_1236745937 726993354_1236745786_1236745828_1236746029 726993354_1236745786_1236745828_1236745925 726993354_1236745786_1236745828_1236745891 726993354_1236745786_1236745828_1236745759 726993354_1236745786_1236745828_1236745951 659675628_1236745828_6176268106_1236745828" />
	<route id="7" edges="195837886_2062531405_1236745786_2062531405 195837886_2062531405_1236745786_2062531524 195837886_2062531405_1236745786_2444550029 195837886_2062531405_1236745786_2062531540 195837886_2062531405_1236745786_2062531521 195837886_2062531405_1236745786_2444550039 195837886_2062531405_1236745786_2444550044 195837886_2062531405_1236745786_2062531527 195837886_2062531405_1236745786_2444550041 195837886_2062531405_1236745786_2062531529 195837886_2062531405_1236745786_2444550032 195837886_2062531405_1236745786_2062531525 195837886_2062531405_1236745786_2444550035 195837886_2062531405_1236745786_2062531523 195837886_2062531405_1236745786_2062531536 195837886_2062531405_1236745786_2444550030 195837886_2062531405_1236745786_2062531530 195837886_2062531405_1236745786_2444550038 195837886_2062531405_1236745786_2062531526 195837886_2062531405_1236745786_2444550036 195837886_2062531405_1236745786_2444550033 195837886_2062531405_1236745786_2062531532 726993354_1236745786_1236745828_1236745786 726993354_1236745786_1236745828_2444554783 726993354_1236745786_1236745828_1236745750 726993354_1236745786_1236745828_2444554782 726993354_1236745786_1236745828_1236746021 726993354_1236745786_1236745828_1236745820 726993354_1236745786_1236745828_1236746071 726993354_1236745786_1236745828_1236746047 726993354_1236745786_1236745828_1236745945 726993354_1236745786_1236745828_1236746094 726993354_1236745786_1236745828_1236745999 726993354_1236745786_1236745828_1236745971 726993354_1236745786_1236745828_1236745853 726993354_1236745786_1236745828_1236745961 726993354_1236745786_1236745828_1236745840 726993354_1236745786_1236745828_1236745804 726993354_1236745786_1236745828_1236746061 726993354_1236745786_1236745828_1236745875 726993354_1236745786_1236745828_1236745742 726993354_1236745786_1236745828_1236746083 726993354_1236745786_1236745828_1236745985 726993354_1236745786_1236745828_1236745778 726993354_1236745786_1236745828_1236746043 726993354_1236745786_1236745828_1236746014 726993354_1236745786_1236745828_1236745911 726993354_1236745786_1236745828_1236746066 726993354_1236745786_1236745828_1236745966 726993354_1236745786_1236745828_1236745940 726993354_1236745786_1236745828_1236745813 726993354_1236745786_1236745828_1236745928 726993354_1236745786_1236745828_1236745797 726993354_1236745786_1236745828_1236745764 726993354_1236745786_1236745828_1236746032 726993354_1236745786_1236745828_1236745832 726993354_1236745786_1236745828_1236746078 726993354_1236745786_1236745828_1236746055 726993354_1236745786_1236745828_1236745953 726993354_1236745786_1236745828_1236745736 726993354_1236745786_1236745828_1236746009 726993354_1236745786_1236745828_1236745980 726993354_1236745786_1236745828_2444554781 726993354_1236745786_1236745828_1236745868 726993354_1236745786_1236745828_1236746038 726993354_1236745786_1236745828_1236745934 726993354_1236745786_1236745828_1236745904 726993354_1236745786_1236745828_1236745773 726993354_1236745786_1236745828_1236745888 726993354_1236745786_1236745828_1236745756 726993354_1236745786_1236745828_1236746092 726993354_1236745786_1236745828_1236745996 726993354_1236745786_1236745828_1236745791 726993354_1236745786_1236745828_1236746051 726993354_1236745786_1236745828_1236746026 726993354_1236745786_1236745828_1236745922 726993354_1236745786_1236745828_1236746074 726993354_1236745786_1236745828_1236745975 726993354_1236745786_1236745828_1236745949 726993354_1236745786_1236745828_1236745825 726993354_1236745786_1236745828_1236746003 726993354_1236745786_1236745828_1236745896 726993354_1236745786_1236745828_1236745860 726993354_1236745786_1236745828_1236746097 726993354_1236745786_1236745828_1236746057 726993354_1236745786_1236745828_1236745957 726993354_1236745786_1236745828_1236745931 726993354_1236745786_1236745828_1236745800 726993354_1236745786_1236745828_1236745982 726993354_1236745786_1236745828_1236745870 726993354_1236745786_1236745828_1236745835 726993354_1236745786_1236745828_1236746080 726993354_1236745786_1236745828_1236745907 726993354_1236745786_1236745828_1236745775 726993354_1236745786_1236745828_1236745738 726993354_1236745786_1236745828_1236746011 726993354_1236745786_1236745828_1236745810 726993354_1236745786_1236745828_1236746064 726993354_1236745786_1236745828_1236746041 726993354_1236745786_1236745828_1236745937 726993354_1236745786_1236745828_1236746029 726993354_1236745786_1236745828_1236745925 726993354_1236745786_1236745828_1236745891 726993354_1236745786_1236745828_1236745759 726993354_1236745786_1236745828_1236745951 659675628_1236745828_6176268106_1236745828 659675633_6176268106_6176268115_6176268106 659675633_6176268106_6176268115_6176268107 659675633_6176268106_6176268115_6176268108 659675633_6176268106_6176268115_6176268113 659675633_6176268106_6176268115_6176268114 659675630_6176268115_1236745794_6176268115 659675631_1236745794_2669903323_1236745794 659675631_1236745794_2669903323_1236746053 659675631_1236745794_2669903323_2669903359 659675631_1236745794_2669903323_1236745863 659675631_2669903323_1236746088_2669903323 659675631_2669903323_1236746088_1236745732 659675631_2669903323_1236746088_1236746076 659675631_2669903323_1236746088_1236745977 659675631_2669903323_1236746088_1236745767 659675631_2669903323_1236746088_1236746035 659675631_2669903323_1236746088_1236746006 659675631_2669903323_1236746088_1236745901 659675631_2669903323_1236746088_1236745991 659675631_2669903323_1236746088_1236745883 659675631_1236746088_2669903323_1236746088" />