<?xml version="1.0" encoding="UTF-8"?>

<!-- generated on Tue Dec  3 16:12:39 2019 by Eclipse SUMO netconvert Version 1.2.0
<configuration xmlns:xsi="http://www.w3.org/2001/XMLSchema-instance" xsi:noNamespaceSchemaLocation="http://sumo.dlr.de/xsd/netconvertConfiguration.xsd">

    <input>
        <node-files value="/home/vsimrti/scenarios/ids/sumo/gualtar6/gualtar6.nod.xml"/>
        <edge-files value="/home/vsimrti/scenarios/ids/sumo/gualtar6/gualtar6.edg.xml"/>
        <connection-files value="/home/vsimrti/scenarios/ids/sumo/gualtar6/gualtar6.con.xml"/>
    </input>

    <output>
        <output-file value="/home/vsimrti/scenarios/ids/sumo/gualtar6/gualtar6.net.xml"/>
    </output>

</configuration>
-->

<net version="1.1" junctionCornerDetail="5" limitTurnSpeed="5.50" xmlns:xsi="http://www.w3.org/2001/XMLSchema-instance" xsi:noNamespaceSchemaLocation="http://sumo.dlr.de/xsd/net_file.xsd">

    <location netOffset="-552805.25,-4600349.27" convBoundary="0.00,0.00,1434.82,1655.25" origBoundary="552805.25,4600349.27,554240.07,4602004.52" projParameter="!"/>

    <edge id=":1236745732_0" function="internal">
        <lane id=":1236745732_0_0" index="0" speed="19.44" length="0.19" shape="990.09,362.06 990.06,362.02 990.03,361.99 990.01,361.96 989.97,361.92"/>
    </edge>
    <edge id=":1236745732_1" function="internal">
        <lane id=":1236745732_1_0" index="0" speed="19.44" length="0.56" shape="992.29,359.71 992.40,359.83 992.48,359.91 992.55,360.00 992.65,360.13"/>
    </edge>
    <edge id=":1236745736_0" function="internal">
        <lane id=":1236745736_0_0" index="0" speed="19.44" length="0.13" shape="539.06,1586.00 538.94,1585.96"/>
    </edge>
    <edge id=":1236745736_1" function="internal">
        <lane id=":1236745736_1_0" index="0" speed="19.44" length="0.39" shape="539.80,1582.88 540.17,1583.00"/>
    </edge>
    <edge id=":1236745738_0" function="internal">
        <lane id=":1236745738_0_0" index="0" speed="19.44" length="0.15" shape="771.17,901.83 771.14,901.87 771.12,901.89 771.11,901.91 771.09,901.95"/>
    </edge>
    <edge id=":1236745738_1" function="internal">
        <lane id=":1236745738_1_0" index="0" speed="19.44" length="0.44" shape="768.33,900.32 768.40,900.21 768.45,900.13 768.50,900.06 768.57,899.95"/>
    </edge>
    <edge id=":1236745742_0" function="internal">
        <lane id=":1236745742_0_0" index="0" speed="19.44" length="0.16" shape="250.09,1487.88 250.08,1487.92 250.08,1487.95 250.07,1487.99 250.07,1488.03"/>
    </edge>
    <edge id=":1236745742_1" function="internal">
        <lane id=":1236745742_1_0" index="0" speed="19.44" length="0.48" shape="246.89,1487.67 246.91,1487.53 246.92,1487.44 246.94,1487.34 246.97,1487.20"/>
    </edge>
    <edge id=":1236745750_0" function="internal">
        <lane id=":1236745750_0_0" index="0" speed="19.44" length="0.16" shape="156.21,1241.56 156.16,1241.55 156.13,1241.55 156.10,1241.55 156.05,1241.54"/>
    </edge>
    <edge id=":1236745750_1" function="internal">
        <lane id=":1236745750_1_0" index="0" speed="19.44" length="0.47" shape="156.29,1238.35 156.43,1238.36 156.53,1238.37 156.62,1238.39 156.76,1238.41"/>
    </edge>
    <edge id=":1236745756_0" function="internal">
        <lane id=":1236745756_0_0" index="0" speed="19.44" length="0.79" shape="891.78,1656.79 891.55,1656.82 891.39,1656.84 891.23,1656.85 891.00,1656.85"/>
    </edge>
    <edge id=":1236745756_1" function="internal">
        <lane id=":1236745756_1_0" index="0" speed="19.44" length="0.26" shape="891.02,1653.65 891.10,1653.65 891.15,1653.64 891.20,1653.64 891.28,1653.63"/>
    </edge>
    <edge id=":1236745759_0" function="internal">
        <lane id=":1236745759_0_0" index="0" speed="19.44" length="0.87" shape="1041.98,594.82 1041.91,595.07 1041.86,595.24 1041.80,595.41 1041.69,595.64"/>
    </edge>
    <edge id=":1236745759_1" function="internal">
        <lane id=":1236745759_1_0" index="0" speed="19.44" length="0.29" shape="1038.78,594.32 1038.81,594.24 1038.83,594.19 1038.85,594.13 1038.87,594.05"/>
    </edge>
    <edge id=":1236745764_0" function="internal">
        <lane id=":1236745764_0_0" index="0" speed="19.44" length="0.19" shape="424.11,1569.41 424.05,1569.42 424.01,1569.42 423.97,1569.43 423.92,1569.44"/>
    </edge>
    <edge id=":1236745764_1" function="internal">
        <lane id=":1236745764_1_0" index="0" speed="19.44" length="0.57" shape="423.21,1566.32 423.37,1566.28 423.49,1566.26 423.60,1566.25 423.77,1566.23"/>
    </edge>
    <edge id=":1236745767_0" function="internal">
        <lane id=":1236745767_0_0" index="0" speed="19.44" length="0.10" shape="956.42,313.34 956.40,313.27"/>
    </edge>
    <edge id=":1236745767_1" function="internal">
        <lane id=":1236745767_1_0" index="0" speed="19.44" length="0.10" shape="959.37,312.09 959.34,312.02"/>
    </edge>
    <edge id=":1236745773_0" function="internal">
        <lane id=":1236745773_0_0" index="0" speed="19.44" length="0.28" shape="822.77,1654.31 822.48,1654.30"/>
    </edge>
    <edge id=":1236745773_1" function="internal">
        <lane id=":1236745773_1_0" index="0" speed="19.44" length="0.31" shape="822.64,1651.10 822.95,1651.12"/>
    </edge>
    <edge id=":1236745775_0" function="internal">
        <lane id=":1236745775_0_0" index="0" speed="19.44" length="0.31" shape="755.48,928.30 755.43,928.38 755.40,928.43 755.38,928.49 755.35,928.58"/>
    </edge>
    <edge id=":1236745775_1" function="internal">
        <lane id=":1236745775_1_0" index="0" speed="19.44" length="0.93" shape="752.33,927.51 752.42,927.25 752.50,927.07 752.58,926.91 752.72,926.67"/>
    </edge>
    <edge id=":1236745778_0" function="internal">
        <lane id=":1236745778_0_0" index="0" speed="19.44" length="0.89" shape="255.45,1542.50 255.30,1542.28 255.21,1542.12 255.13,1541.96 255.03,1541.72"/>
    </edge>
    <edge id=":1236745778_1" function="internal">
        <lane id=":1236745778_1_0" index="0" speed="19.44" length="0.30" shape="257.99,1540.49 258.02,1540.57 258.05,1540.63 258.08,1540.68 258.13,1540.76"/>
    </edge>
    <edge id=":1236745786_0" function="internal">
        <lane id=":1236745786_0_0" index="0" speed="6.07" length="8.45" shape="113.18,1244.05 113.03,1241.70 113.69,1239.95 115.16,1238.81 117.46,1238.27"/>
    </edge>
    <edge id=":1236745786_1" function="internal">
        <lane id=":1236745786_1_0" index="0" speed="3.90" length="2.82" shape="117.74,1241.46 116.97,1241.64 116.48,1242.02 116.26,1242.60 116.31,1243.39"/>
    </edge>
    <edge id=":1236745791_0" function="internal">
        <lane id=":1236745791_0_0" index="0" speed="10.89" length="1.64" shape="962.87,1621.44 962.62,1621.85 962.43,1622.13 962.20,1622.37 961.83,1622.68"/>
    </edge>
    <edge id=":1236745791_1" function="internal">
        <lane id=":1236745791_1_0" index="0" speed="19.44" length="0.55" shape="959.76,1620.24 959.88,1620.14 959.96,1620.06 960.03,1619.96 960.11,1619.83"/>
    </edge>
    <edge id=":1236745794_0" function="internal">
        <lane id=":1236745794_0_0" index="0" speed="19.44" length="3.99" shape="1045.69,460.24 1046.01,461.38 1046.25,462.16 1046.55,462.91 1047.05,463.98"/>
    </edge>
    <edge id=":1236745794_1" function="internal">
        <lane id=":1236745794_1_0" index="0" speed="3.65" length="2.34" shape="1045.69,460.24 1045.25,461.62 1044.59,462.22"/>
    </edge>
    <edge id=":1236745794_3" function="internal">
        <lane id=":1236745794_3_0" index="0" speed="3.65" length="2.34" shape="1044.59,462.22 1043.71,462.05 1042.61,461.12"/>
    </edge>
    <edge id=":1236745794_2" function="internal">
        <lane id=":1236745794_2_0" index="0" speed="8.20" length="3.92" shape="1042.52,464.94 1042.86,463.83 1042.99,463.04 1042.90,462.24 1042.61,461.12"/>
    </edge>
    <edge id=":1236745797_0" function="internal">
        <lane id=":1236745797_0_0" index="0" speed="19.44" length="0.30" shape="402.60,1574.30 402.30,1574.36"/>
    </edge>
    <edge id=":1236745797_1" function="internal">
        <lane id=":1236745797_1_0" index="0" speed="19.44" length="0.21" shape="401.68,1571.22 401.89,1571.18"/>
    </edge>
    <edge id=":1236745800_0" function="internal">
        <lane id=":1236745800_0_0" index="0" speed="19.44" length="0.49" shape="748.78,1078.30 748.72,1078.16 748.69,1078.07 748.65,1077.98 748.61,1077.84"/>
    </edge>
    <edge id=":1236745800_1" function="internal">
        <lane id=":1236745800_1_0" index="0" speed="19.44" length="0.16" shape="751.66,1076.87 751.67,1076.92 751.68,1076.95 751.70,1076.98 751.72,1077.02"/>
    </edge>
    <edge id=":1236745804_0" function="internal">
        <lane id=":1236745804_0_0" index="0" speed="19.44" length="0.28" shape="265.49,1414.68 265.44,1414.96"/>
    </edge>
    <edge id=":1236745804_1" function="internal">
        <lane id=":1236745804_1_0" index="0" speed="19.44" length="0.31" shape="262.30,1414.35 262.36,1414.05"/>
    </edge>
    <edge id=":1236745810_0" function="internal">
        <lane id=":1236745810_0_0" index="0" speed="19.44" length="0.15" shape="817.25,848.80 817.15,848.90"/>
    </edge>
    <edge id=":1236745810_1" function="internal">
        <lane id=":1236745810_1_0" index="0" speed="19.44" length="0.28" shape="814.83,846.69 815.03,846.49"/>
    </edge>
    <edge id=":1236745813_0" function="internal">
        <lane id=":1236745813_0_0" index="0" speed="19.44" length="0.43" shape="363.07,1582.85 362.95,1582.88 362.86,1582.90 362.78,1582.92 362.65,1582.94"/>
    </edge>
    <edge id=":1236745813_1" function="internal">
        <lane id=":1236745813_1_0" index="0" speed="19.44" length="0.14" shape="362.18,1579.77 362.22,1579.76 362.25,1579.76 362.28,1579.75 362.32,1579.74"/>
    </edge>
    <edge id=":1236745820_0" function="internal">
        <lane id=":1236745820_0_0" index="0" speed="19.44" length="0.34" shape="209.23,1259.76 209.16,1259.69 209.10,1259.65 209.04,1259.62 208.95,1259.57"/>
    </edge>
    <edge id=":1236745820_1" function="internal">
        <lane id=":1236745820_1_0" index="0" speed="19.44" length="1.02" shape="210.42,1256.73 210.69,1256.87 210.86,1256.97 211.03,1257.09 211.26,1257.28"/>
    </edge>
    <edge id=":1236745825_0" function="internal">
        <lane id=":1236745825_0_0" index="0" speed="19.44" length="0.43" shape="975.96,1358.97 975.93,1358.85 975.90,1358.77 975.86,1358.69 975.80,1358.58"/>
    </edge>
    <edge id=":1236745825_1" function="internal">
        <lane id=":1236745825_1_0" index="0" speed="19.44" length="1.29" shape="978.58,1356.99 978.77,1357.33 978.88,1357.56 978.96,1357.81 979.06,1358.18"/>
    </edge>
    <edge id=":1236745828_0" function="internal">
        <lane id=":1236745828_0_0" index="0" speed="12.77" length="3.73" shape="1052.72,535.89 1052.29,536.91 1052.08,537.64 1051.99,538.40 1051.96,539.50"/>
    </edge>
    <edge id=":1236745828_1" function="internal">
        <lane id=":1236745828_1_0" index="0" speed="10.19" length="3.72" shape="1048.76,539.45 1048.76,538.35 1048.68,537.59 1048.44,536.87 1047.97,535.87"/>
    </edge>
    <edge id=":1236745828_2" function="internal">
        <lane id=":1236745828_2_0" index="0" speed="3.65" length="2.34" shape="1048.76,539.45 1049.58,538.26 1050.39,537.87"/>
    </edge>
    <edge id=":1236745828_3" function="internal">
        <lane id=":1236745828_3_0" index="0" speed="3.65" length="2.34" shape="1050.39,537.87 1051.18,538.29 1051.96,539.50"/>
    </edge>
    <edge id=":1236745832_0" function="internal">
        <lane id=":1236745832_0_0" index="0" speed="19.44" length="0.19" shape="466.92,1569.11 466.86,1569.10 466.83,1569.09 466.79,1569.09 466.73,1569.08"/>
    </edge>
    <edge id=":1236745832_1" function="internal">
        <lane id=":1236745832_1_0" index="0" speed="19.44" length="0.58" shape="467.01,1565.89 467.18,1565.91 467.30,1565.92 467.41,1565.94 467.58,1565.98"/>
    </edge>
    <edge id=":1236745835_0" function="internal">
        <lane id=":1236745835_0_0" index="0" speed="19.44" length="0.10" shape="740.12,990.62 740.12,990.52"/>
    </edge>
    <edge id=":1236745835_1" function="internal">
        <lane id=":1236745835_1_0" index="0" speed="19.44" length="0.10" shape="736.92,990.45 736.93,990.35"/>
    </edge>
    <edge id=":1236745840_0" function="internal">
        <lane id=":1236745840_0_0" index="0" speed="19.44" length="0.49" shape="269.30,1395.71 269.29,1395.85 269.28,1395.95 269.26,1396.05 269.23,1396.19"/>
    </edge>
    <edge id=":1236745840_1" function="internal">
        <lane id=":1236745840_1_0" index="0" speed="19.44" length="0.16" shape="266.09,1395.56 266.10,1395.51 266.11,1395.48 266.11,1395.45 266.12,1395.40"/>
    </edge>
    <edge id=":1236745853_0" function="internal">
        <lane id=":1236745853_0_0" index="0" speed="19.44" length="0.21" shape="267.22,1351.72 267.22,1351.66 267.21,1351.62 267.21,1351.57 267.19,1351.51"/>
    </edge>
    <edge id=":1236745853_1" function="internal">
        <lane id=":1236745853_1_0" index="0" speed="19.44" length="0.64" shape="270.33,1350.88 270.37,1351.06 270.39,1351.19 270.40,1351.32 270.42,1351.51"/>
    </edge>
    <edge id=":1236745860_0" function="internal">
        <lane id=":1236745860_0_0" index="0" speed="19.44" length="0.14" shape="910.16,1274.61 910.06,1274.51"/>
    </edge>
    <edge id=":1236745860_1" function="internal">
        <lane id=":1236745860_1_0" index="0" speed="19.44" length="0.28" shape="912.26,1272.18 912.46,1272.38"/>
    </edge>
    <edge id=":1236745863_0" function="internal">
        <lane id=":1236745863_0_0" index="0" speed="19.44" length="0.20" shape="1015.22,395.45 1015.19,395.40 1015.17,395.36 1015.15,395.33 1015.11,395.28"/>
    </edge>
    <edge id=":1236745863_1" function="internal">
        <lane id=":1236745863_1_0" index="0" speed="19.44" length="0.59" shape="1017.67,393.36 1017.77,393.50 1017.84,393.60 1017.91,393.70 1017.99,393.85"/>
    </edge>
    <edge id=":1236745868_0" function="internal">
        <lane id=":1236745868_0_0" index="0" speed="19.44" length="0.89" shape="640.14,1640.63 639.89,1640.56 639.72,1640.51 639.55,1640.44 639.31,1640.33"/>
    </edge>
    <edge id=":1236745868_1" function="internal">
        <lane id=":1236745868_1_0" index="0" speed="19.44" length="0.30" shape="640.65,1637.42 640.73,1637.46 640.78,1637.48 640.84,1637.50 640.93,1637.52"/>
    </edge>
    <edge id=":1236745870_0" function="internal">
        <lane id=":1236745870_0_0" index="0" speed="19.44" length="0.50" shape="736.46,1012.34 736.45,1012.20 736.45,1012.09 736.45,1011.99 736.45,1011.84"/>
    </edge>
    <edge id=":1236745870_1" function="internal">
        <lane id=":1236745870_1_0" index="0" speed="19.44" length="0.17" shape="739.65,1011.92 739.65,1011.96 739.65,1012.00 739.65,1012.03 739.65,1012.08"/>
    </edge>
    <edge id=":1236745875_0" function="internal">
        <lane id=":1236745875_0_0" index="0" speed="19.44" length="0.30" shape="254.71,1466.42 254.65,1466.71"/>
    </edge>
    <edge id=":1236745875_1" function="internal">
        <lane id=":1236745875_1_0" index="0" speed="19.44" length="0.30" shape="251.52,1466.03 251.58,1465.74"/>
    </edge>
    <edge id=":1236745883_0" function="internal">
        <lane id=":1236745883_0_0" index="0" speed="19.44" length="0.55" shape="971.09,216.37 970.97,216.49 970.90,216.57 970.84,216.67 970.76,216.81"/>
    </edge>
    <edge id=":1236745883_1" function="internal">
        <lane id=":1236745883_1_0" index="0" speed="10.77" length="1.65" shape="967.89,215.40 968.12,214.96 968.29,214.67 968.51,214.42 968.86,214.07"/>
    </edge>
    <edge id=":1236745888_0" function="internal">
        <lane id=":1236745888_0_0" index="0" speed="19.44" length="0.10" shape="864.60,1656.67 864.52,1656.67"/>
    </edge>
    <edge id=":1236745888_1" function="internal">
        <lane id=":1236745888_1_0" index="0" speed="19.44" length="0.10" shape="864.70,1653.47 864.62,1653.47"/>
    </edge>
    <edge id=":1236745891_0" function="internal">
        <lane id=":1236745891_0_0" index="0" speed="19.44" length="0.10" shape="1033.96,612.64 1033.93,612.71"/>
    </edge>
    <edge id=":1236745891_1" function="internal">
        <lane id=":1236745891_1_0" index="0" speed="19.44" length="0.10" shape="1031.08,611.25 1031.05,611.32"/>
    </edge>
    <edge id=":1236745896_0" function="internal">
        <lane id=":1236745896_0_0" index="0" speed="19.44" length="0.10" shape="938.66,1303.88 938.71,1303.94"/>
    </edge>
    <edge id=":1236745896_1" function="internal">
        <lane id=":1236745896_1_0" index="0" speed="19.44" length="0.10" shape="941.01,1301.70 941.06,1301.76"/>
    </edge>
    <edge id=":1236745901_0" function="internal">
        <lane id=":1236745901_0_0" index="0" speed="19.44" length="0.25" shape="953.54,267.04 953.53,267.11 953.52,267.16 953.52,267.21 953.52,267.29"/>
    </edge>
    <edge id=":1236745901_1" function="internal">
        <lane id=":1236745901_1_0" index="0" speed="19.44" length="0.75" shape="950.32,267.24 950.32,267.02 950.33,266.87 950.35,266.72 950.38,266.50"/>
    </edge>
    <edge id=":1236745904_0" function="internal">
        <lane id=":1236745904_0_0" index="0" speed="19.44" length="0.30" shape="759.38,1651.24 759.09,1651.23"/>
    </edge>
    <edge id=":1236745904_1" function="internal">
        <lane id=":1236745904_1_0" index="0" speed="19.44" length="0.30" shape="759.24,1648.03 759.54,1648.04"/>
    </edge>
    <edge id=":1236745907_0" function="internal">
        <lane id=":1236745907_0_0" index="0" speed="19.44" length="0.11" shape="749.66,944.60 749.63,944.70"/>
    </edge>
    <edge id=":1236745907_1" function="internal">
        <lane id=":1236745907_1_0" index="0" speed="19.44" length="0.32" shape="746.55,943.83 746.64,943.53"/>
    </edge>
    <edge id=":1236745911_0" function="internal">
        <lane id=":1236745911_0_0" index="0" speed="19.44" length="0.89" shape="286.07,1573.70 285.84,1573.58 285.68,1573.50 285.52,1573.40 285.31,1573.25"/>
    </edge>
    <edge id=":1236745911_1" function="internal">
        <lane id=":1236745911_1_0" index="0" speed="19.44" length="0.30" shape="287.17,1570.65 287.24,1570.70 287.29,1570.73 287.35,1570.76 287.42,1570.80"/>
    </edge>
    <edge id=":1236745922_0" function="internal">
        <lane id=":1236745922_0_0" index="0" speed="19.44" length="0.30" shape="988.78,1508.85 988.77,1509.16"/>
    </edge>
    <edge id=":1236745922_1" function="internal">
        <lane id=":1236745922_1_0" index="0" speed="19.44" length="0.29" shape="985.57,1509.05 985.58,1508.75"/>
    </edge>
    <edge id=":1236745925_0" function="internal">
        <lane id=":1236745925_0_0" index="0" speed="19.44" length="0.95" shape="1014.60,650.44 1014.47,650.69 1014.37,650.86 1014.26,651.02 1014.08,651.24"/>
    </edge>
    <edge id=":1236745925_1" function="internal">
        <lane id=":1236745925_1_0" index="0" speed="19.44" length="0.32" shape="1011.58,649.25 1011.64,649.17 1011.68,649.12 1011.71,649.06 1011.75,648.98"/>
    </edge>
    <edge id=":1236745928_0" function="internal">
        <lane id=":1236745928_0_0" index="0" speed="19.44" length="0.14" shape="379.42,1578.88 379.28,1578.91"/>
    </edge>
    <edge id=":1236745928_1" function="internal">
        <lane id=":1236745928_1_0" index="0" speed="19.44" length="0.28" shape="378.53,1575.80 378.79,1575.74"/>
    </edge>
    <edge id=":1236745931_0" function="internal">
        <lane id=":1236745931_0_0" index="0" speed="19.44" length="0.52" shape="765.16,1115.91 765.08,1115.78 765.03,1115.69 764.98,1115.59 764.92,1115.45"/>
    </edge>
    <edge id=":1236745931_1" function="internal">
        <lane id=":1236745931_1_0" index="0" speed="19.44" length="0.17" shape="767.86,1114.17 767.88,1114.22 767.89,1114.25 767.91,1114.28 767.93,1114.33"/>
    </edge>
    <edge id=":1236745934_0" function="internal">
        <lane id=":1236745934_0_0" index="0" speed="19.44" length="0.31" shape="721.69,1649.49 721.38,1649.48"/>
    </edge>
    <edge id=":1236745934_1" function="internal">
        <lane id=":1236745934_1_0" index="0" speed="19.44" length="0.29" shape="721.55,1646.28 721.83,1646.30"/>
    </edge>
    <edge id=":1236745937_0" function="internal">
        <lane id=":1236745937_0_0" index="0" speed="19.44" length="0.31" shape="944.59,725.52 944.36,725.74"/>
    </edge>
    <edge id=":1236745937_1" function="internal">
        <lane id=":1236745937_1_0" index="0" speed="19.44" length="0.25" shape="942.15,723.42 942.33,723.25"/>
    </edge>
    <edge id=":1236745940_0" function="internal">
        <lane id=":1236745940_0_0" index="0" speed="19.44" length="0.82" shape="337.80,1586.66 337.56,1586.70 337.39,1586.71 337.22,1586.72 336.98,1586.71"/>
    </edge>
    <edge id=":1236745940_1" function="internal">
        <lane id=":1236745940_1_0" index="0" speed="19.44" length="0.27" shape="337.05,1583.51 337.13,1583.52 337.19,1583.51 337.24,1583.51 337.32,1583.50"/>
    </edge>
    <edge id=":1236745945_0" function="internal">
        <lane id=":1236745945_0_0" index="0" speed="19.44" length="0.20" shape="239.79,1287.74 239.75,1287.69 239.73,1287.66 239.70,1287.63 239.66,1287.58"/>
    </edge>
    <edge id=":1236745945_1" function="internal">
        <lane id=":1236745945_1_0" index="0" speed="19.44" length="0.60" shape="242.05,1285.46 242.17,1285.59 242.25,1285.68 242.32,1285.78 242.42,1285.92"/>
    </edge>
    <edge id=":1236745949_0" function="internal">
        <lane id=":1236745949_0_0" index="0" speed="19.44" length="0.32" shape="986.11,1398.81 986.10,1398.71 986.10,1398.65 986.09,1398.58 986.06,1398.49"/>
    </edge>
    <edge id=":1236745949_1" function="internal">
        <lane id=":1236745949_1_0" index="0" speed="19.44" length="0.97" shape="989.16,1397.70 989.23,1397.98 989.27,1398.17 989.29,1398.36 989.31,1398.65"/>
    </edge>
    <edge id=":1236745951_0" function="internal">
        <lane id=":1236745951_0_0" index="0" speed="19.44" length="1.10" shape="1051.69,555.46 1051.68,555.78 1051.67,556.01 1051.63,556.22 1051.55,556.54"/>
    </edge>
    <edge id=":1236745951_1" function="internal">
        <lane id=":1236745951_1_0" index="0" speed="19.44" length="0.37" shape="1048.44,555.76 1048.47,555.66 1048.48,555.59 1048.49,555.51 1048.49,555.40"/>
    </edge>
    <edge id=":1236745953_0" function="internal">
        <lane id=":1236745953_0_0" index="0" speed="19.44" length="0.24" shape="523.09,1581.51 522.86,1581.45"/>
    </edge>
    <edge id=":1236745953_1" function="internal">
        <lane id=":1236745953_1_0" index="0" speed="19.44" length="0.31" shape="523.66,1578.35 523.96,1578.43"/>
    </edge>
    <edge id=":1236745957_0" function="internal">
        <lane id=":1236745957_0_0" index="0" speed="19.44" length="0.80" shape="782.03,1145.30 781.88,1145.12 781.78,1144.99 781.69,1144.85 781.57,1144.64"/>
    </edge>
    <edge id=":1236745957_1" function="internal">
        <lane id=":1236745957_1_0" index="0" speed="19.44" length="0.27" shape="784.35,1143.06 784.39,1143.12 784.42,1143.17 784.45,1143.21 784.50,1143.28"/>
    </edge>
    <edge id=":1236745961_0" function="internal">
        <lane id=":1236745961_0_0" index="0" speed="19.44" length="0.79" shape="271.69,1370.47 271.71,1370.71 271.71,1370.87 271.70,1371.03 271.68,1371.26"/>
    </edge>
    <edge id=":1236745961_1" function="internal">
        <lane id=":1236745961_1_0" index="0" speed="19.44" length="0.26" shape="268.49,1370.95 268.50,1370.87 268.50,1370.82 268.50,1370.76 268.50,1370.69"/>
    </edge>
    <edge id=":1236745966_0" function="internal">
        <lane id=":1236745966_0_0" index="0" speed="19.44" length="1.14" shape="320.61,1586.35 320.27,1586.34 320.04,1586.32 319.81,1586.27 319.49,1586.19"/>
    </edge>
    <edge id=":1236745966_1" function="internal">
        <lane id=":1236745966_1_0" index="0" speed="19.44" length="0.38" shape="320.31,1583.10 320.42,1583.12 320.49,1583.14 320.57,1583.15 320.68,1583.15"/>
    </edge>
    <edge id=":1236745971_0" function="internal">
        <lane id=":1236745971_0_0" index="0" speed="19.44" length="0.31" shape="263.55,1333.49 263.53,1333.41 263.51,1333.35 263.49,1333.29 263.46,1333.20"/>
    </edge>
    <edge id=":1236745971_1" function="internal">
        <lane id=":1236745971_1_0" index="0" speed="19.44" length="0.92" shape="266.42,1331.99 266.52,1332.24 266.58,1332.41 266.63,1332.59 266.68,1332.86"/>
    </edge>
    <edge id=":1236745975_0" function="internal">
        <lane id=":1236745975_0_0" index="0" speed="19.44" length="0.10" shape="990.40,1421.09 990.40,1421.17"/>
    </edge>
    <edge id=":1236745975_1" function="internal">
        <lane id=":1236745975_1_0" index="0" speed="19.44" length="0.10" shape="987.20,1421.16 987.20,1421.24"/>
    </edge>
    <edge id=":1236745977_0" function="internal">
        <lane id=":1236745977_0_0" index="0" speed="19.44" length="0.81" shape="963.57,329.03 963.44,328.83 963.35,328.69 963.28,328.54 963.18,328.32"/>
    </edge>
    <edge id=":1236745977_1" function="internal">
        <lane id=":1236745977_1_0" index="0" speed="19.44" length="0.27" shape="966.10,327.00 966.13,327.08 966.15,327.13 966.18,327.17 966.23,327.24"/>
    </edge>
    <edge id=":1236745980_0" function="internal">
        <lane id=":1236745980_0_0" index="0" speed="19.44" length="0.23" shape="599.12,1616.58 598.92,1616.45"/>
    </edge>
    <edge id=":1236745980_1" function="internal">
        <lane id=":1236745980_1_0" index="0" speed="19.44" length="0.31" shape="600.69,1613.78 600.94,1613.95"/>
    </edge>
    <edge id=":1236745982_0" function="internal">
        <lane id=":1236745982_0_0" index="0" speed="19.44" length="1.09" shape="739.64,1049.67 739.55,1049.36 739.49,1049.15 739.46,1048.93 739.43,1048.61"/>
    </edge>
    <edge id=":1236745982_1" function="internal">
        <lane id=":1236745982_1_0" index="0" speed="19.44" length="0.36" shape="742.62,1048.35 742.63,1048.45 742.64,1048.53 742.66,1048.60 742.69,1048.70"/>
    </edge>
    <edge id=":1236745985_0" function="internal">
        <lane id=":1236745985_0_0" index="0" speed="19.44" length="1.05" shape="249.01,1527.15 248.89,1526.86 248.82,1526.66 248.77,1526.45 248.72,1526.14"/>
    </edge>
    <edge id=":1236745985_1" function="internal">
        <lane id=":1236745985_1_0" index="0" speed="19.44" length="0.35" shape="251.87,1525.59 251.89,1525.69 251.91,1525.76 251.93,1525.83 251.97,1525.93"/>
    </edge>
    <edge id=":1236745991_0" function="internal">
        <lane id=":1236745991_0_0" index="0" speed="19.44" length="0.46" shape="957.68,243.30 957.62,243.42 957.58,243.51 957.56,243.60 957.53,243.74"/>
    </edge>
    <edge id=":1236745991_1" function="internal">
        <lane id=":1236745991_1_0" index="0" speed="16.86" length="1.39" shape="954.38,243.20 954.45,242.79 954.52,242.52 954.63,242.25 954.81,241.88"/>
    </edge>
    <edge id=":1236745996_0" function="internal">
        <lane id=":1236745996_0_0" index="0" speed="18.99" length="1.36" shape="938.63,1642.31 938.32,1642.56 938.10,1642.73 937.85,1642.86 937.48,1643.03"/>
    </edge>
    <edge id=":1236745996_1" function="internal">
        <lane id=":1236745996_1_0" index="0" speed="19.44" length="0.45" shape="936.18,1640.10 936.30,1640.05 936.39,1640.00 936.46,1639.95 936.56,1639.86"/>
    </edge>
    <edge id=":1236745999_0" function="internal">
        <lane id=":1236745999_0_0" index="0" speed="19.44" length="0.15" shape="255.22,1313.18 255.20,1313.14 255.19,1313.11 255.18,1313.08 255.16,1313.04"/>
    </edge>
    <edge id=":1236745999_1" function="internal">
        <lane id=":1236745999_1_0" index="0" speed="19.44" length="0.45" shape="257.99,1311.55 258.05,1311.67 258.09,1311.75 258.13,1311.84 258.18,1311.96"/>
    </edge>
    <edge id=":1236746003_0" function="internal">
        <lane id=":1236746003_0_0" index="0" speed="19.44" length="0.34" shape="955.38,1322.73 955.33,1322.64 955.29,1322.58 955.25,1322.53 955.19,1322.45"/>
    </edge>
    <edge id=":1236746003_1" function="internal">
        <lane id=":1236746003_1_0" index="0" speed="19.44" length="1.01" shape="957.58,1320.33 957.77,1320.55 957.90,1320.71 958.01,1320.88 958.16,1321.14"/>
    </edge>
    <edge id=":1236746006_0" function="internal">
        <lane id=":1236746006_0_0" index="0" speed="19.44" length="0.76" shape="950.09,287.81 950.06,287.59 950.04,287.43 950.04,287.28 950.04,287.05"/>
    </edge>
    <edge id=":1236746006_1" function="internal">
        <lane id=":1236746006_1_0" index="0" speed="19.44" length="0.25" shape="953.24,287.10 953.24,287.17 953.24,287.23 953.24,287.28 953.25,287.35"/>
    </edge>
    <edge id=":1236746009_0" function="internal">
        <lane id=":1236746009_0_0" index="0" speed="19.44" length="0.37" shape="570.51,1597.68 570.42,1597.62 570.35,1597.58 570.28,1597.55 570.18,1597.52"/>
    </edge>
    <edge id=":1236746009_1" function="internal">
        <lane id=":1236746009_1_0" index="0" speed="19.44" length="1.10" shape="571.29,1594.51 571.60,1594.63 571.80,1594.72 572.00,1594.83 572.27,1595.01"/>
    </edge>
    <edge id=":1236746011_0" function="internal">
        <lane id=":1236746011_0_0" index="0" speed="19.44" length="0.22" shape="785.44,882.11 785.40,882.16 785.37,882.19 785.34,882.23 785.30,882.28"/>
    </edge>
    <edge id=":1236746011_1" function="internal">
        <lane id=":1236746011_1_0" index="0" speed="19.44" length="0.65" shape="782.71,880.41 782.82,880.25 782.90,880.14 782.99,880.04 783.13,879.90"/>
    </edge>
    <edge id=":1236746014_0" function="internal">
        <lane id=":1236746014_0_0" index="0" speed="19.44" length="1.04" shape="272.81,1564.31 272.56,1564.13 272.40,1564.00 272.24,1563.85 272.04,1563.62"/>
    </edge>
    <edge id=":1236746014_1" function="internal">
        <lane id=":1236746014_1_0" index="0" speed="19.44" length="0.35" shape="274.41,1561.48 274.48,1561.56 274.53,1561.61 274.59,1561.65 274.67,1561.71"/>
    </edge>
    <edge id=":1236746021_0" function="internal">
        <lane id=":1236746021_0_0" index="0" speed="19.44" length="0.22" shape="191.27,1250.45 191.21,1250.42 191.17,1250.40 191.13,1250.38 191.06,1250.36"/>
    </edge>