<connections>
	<connection from="726996230_6504649734_6504649733_6504649734" to="726996230_6504649733_1239883924_6504649733" />
	<connection from="726996230_6504649734_6504649733_6504649734" to="692842014_6504649733_6504649706_6504649733" />
	<connection from="726996230_6504649734_6504649733_6504649734" to="726996230_6504649733_6504649734_6504649733" />
	<connection from="726996230_6504649733_1239883924_6504649733" to="726996230_6504649733_1239883924_2062539234" />
	<connection from="726996230_6504649733_1239883924_2062539234" to="726996230_6504649733_1239883924_2062539238" />
	<connection from="726996230_6504649733_1239883924_2062539238" to="726996230_1239883924_6504649733_1239883924" />
	<connection from="726996230_6504649733_1239883924_2062539238" to="107987340_1239883924_1239883923_1239883924" />
	<connection from="726996230_6504649733_1239883924_2062539238" to="195837892_1239883924_6177088919_1239883924" />
	<connection from="692842015_6504649734_6504649769_6504649734" to="692842015_6504649734_6504649769_6504649735" />
	<connection from="692842015_6504649734_6504649769_6504649735" to="692842015_6504649734_6504649769_6504649736" />
	<connection from="692842015_6504649734_6504649769_6504649736" to="692842015_6504649734_6504649769_6504649737" />
	<connection from="692842015_6504649734_6504649769_6504649737" to="692842015_6504649734_6504649769_6504649738" />
	<connection from="692842015_6504649734_6504649769_6504649738" to="692842015_6504649734_6504649769_6504649739" />
	<connection from="692842015_6504649734_6504649769_6504649739" to="692842015_6504649734_6504649769_6504649740" />
	<connection from="692842015_6504649734_6504649769_6504649740" to="692842015_6504649734_6504649769_6504649741" />
	<connection from="692842015_6504649734_6504649769_6504649741" to="692842015_6504649734_6504649769_6504649742" />
	<connection from="692842015_6504649734_6504649769_6504649742" to="692842015_6504649734_6504649769_6504649743" />
	<connection from="692842015_6504649734_6504649769_6504649743" to="692842015_6504649734_6504649769_6504649744" />
	<connection from="692842015_6504649734_6504649769_6504649744" to="692842015_6504649734_6504649769_6504649745" />
	<connection from="692842015_6504649734_6504649769_6504649745" to="692842015_6504649734_6504649769_6504649746" />
	<connection from="692842015_6504649734_6504649769_6504649746" to="692842015_6504649734_6504649769_6504649747" />
	<connection from="692842015_6504649734_6504649769_6504649747" to="692842015_6504649734_6504649769_6504649748" />
	<connection from="692842015_6504649734_6504649769_6504649748" to="692842015_6504649734_6504649769_6504649749" />
	<connection from="692842015_6504649734_6504649769_6504649749" to="692842015_6504649734_6504649769_6504649750" />
	<connection from="692842015_6504649734_6504649769_6504649750" to="692842015_6504649734_6504649769_6504649751" />
	<connection from="692842015_6504649734_6504649769_6504649751" to="692842015_6504649734_6504649769_6504649752" />
	<connection from="692842015_6504649734_6504649769_6504649752" to="692842015_6504649734_6504649769_6504649753" />
	<connection from="692842015_6504649734_6504649769_6504649753" to="692842015_6504649734_6504649769_6504649754" />
	<connection from="692842015_6504649734_6504649769_6504649754" to="692842015_6504649734_6504649769_6504649755" />
	<connection from="692842015_6504649734_6504649769_6504649755" to="692842015_6504649734_6504649769_6504649756" />
	<connection from="692842015_6504649734_6504649769_6504649756" to="692842015_6504649734_6504649769_6504649757" />
	<connection from="692842015_6504649734_6504649769_6504649757" to="692842015_6504649734_6504649769_6504649758" />
	<connection from="692842015_6504649734_6504649769_6504649758" to="692842015_6504649734_6504649769_6504649759" />
	<connection from="692842015_6504649734_6504649769_6504649759" to="692842015_6504649734_6504649769_6504649760" />
	<connection from="692842015_6504649734_6504649769_6504649760" to="692842015_6504649734_6504649769_6504649761" />
	<connection from="692842015_6504649734_6504649769_6504649761" to="692842015_6504649734_6504649769_6504649762" />
	<connection from="692842015_6504649734_6504649769_6504649762" to="692842015_6504649734_6504649769_6504649763" />
	<connection from="692842015_6504649734_6504649769_6504649763" to="692842015_6504649734_6504649769_6504649764" />
	<connection from="692842015_6504649734_6504649769_6504649764" to="692842015_6504649734_6504649769_6504649765" />
	<connection from="692842015_6504649734_6504649769_6504649765" to="692842015_6504649734_6504649769_6504649766" />
	<connection from="692842015_6504649734_6504649769_6504649766" to="692842015_6504649734_6504649769_6504649767" />
	<connection from="692842015_6504649734_6504649769_6504649767" to="692842015_6504649734_6504649769_6504649768" />
	<connection from="692842015_6504649734_6504649769_6504649768" to="726996230_6504649769_3154447938_6504649769" />
	<connection from="692842015_6504649734_6504649769_6504649768" to="692842015_6504649769_6504649734_6504649769" />
	<connection from="692842015_6504649734_6504649769_6504649768" to="726996230_6504649769_2062531967_6504649769" />
	<connection from="195837886_1236745786_2062531405_1236745786" to="195837886_1236745786_2062531405_2062531532" />
	<connection from="195837886_1236745786_2062531405_2062531532" to="195837886_1236745786_2062531405_2444550033" />
	<connection from="195837886_1236745786_2062531405_2444550033" to="195837886_1236745786_2062531405_2444550036" />
	<connection from="195837886_1236745786_2062531405_2444550036" to="195837886_1236745786_2062531405_2062531526" />
	<connection from="195837886_1236745786_2062531405_2062531526" to="195837886_1236745786_2062531405_2444550038" />
	<connection from="195837886_1236745786_2062531405_2444550038" to="195837886_1236745786_2062531405_2062531530" />
	<connection from="195837886_1236745786_2062531405_2062531530" to="195837886_1236745786_2062531405_2444550030" />
	<connection from="195837886_1236745786_2062531405_2444550030" to="195837886_1236745786_2062531405_2062531536" />
	<connection from="195837886_1236745786_2062531405_2062531536" to="195837886_1236745786_2062531405_2062531523" />
	<connection from="195837886_1236745786_2062531405_2062531523" to="195837886_1236745786_2062531405_2444550035" />
	<connection from="195837886_1236745786_2062531405_2444550035" to="195837886_1236745786_2062531405_2062531525" />
	<connection from="195837886_1236745786_2062531405_2062531525" to="195837886_1236745786_2062531405_2444550032" />
	<connection from="195837886_1236745786_2062531405_2444550032" to="195837886_1236745786_2062531405_2062531529" />
	<connection from="195837886_1236745786_2062531405_2062531529" to="195837886_1236745786_2062531405_2444550041" />
	<connection from="195837886_1236745786_2062531405_2444550041" to="195837886_1236745786_2062531405_2062531527" />
	<connection from="195837886_1236745786_2062531405_2062531527" to="195837886_1236745786_2062531405_2444550044" />
	<connection from="195837886_1236745786_2062531405_2444550044" to="195837886_1236745786_2062531405_2444550039" />
	<connection from="195837886_1236745786_2062531405_2444550039" to="195837886_1236745786_2062531405_2062531521" />
	<connection from="195837886_1236745786_2062531405_2062531521" to="195837886_1236745786_2062531405_2062531540" />
	<connection from="195837886_1236745786_2062531405_2062531540" to="195837886_1236745786_2062531405_2444550029" />
	<connection from="195837886_1236745786_2062531405_2444550029" to="195837886_1236745786_2062531405_2062531524" />
	<connection from="195837886_1236745786_2062531405_2062531524" to="195837886_2062531405_1236745786_2062531405" />
	<connection from="659675633_6176268106_6176268115_6176268106" to="659675633_6176268106_6176268115_6176268107" />
	<connection from="659675633_6176268106_6176268115_6176268107" to="659675633_6176268106_6176268115_6176268108" />
	<connection from="659675633_6176268106_6176268115_6176268108" to="659675633_6176268106_6176268115_6176268113" />
	<connection from="659675633_6176268106_6176268115_6176268113" to="659675633_6176268106_6176268115_6176268114" />
	<connection from="659675633_6176268106_6176268115_6176268114" to="659675630_6176268115_1236745794_6176268115" />
	<connection from="659675633_6176268106_6176268115_6176268114" to="659675634_6176268115_6176268116_6176268115" />
	<connection from="659675629_6176268120_1236745828_6176268120" to="726993354_1236745828_1236745786_1236745828" />
	<connection from="261369866_2669903323_2062539248_2669903323" to="261369866_2669903323_2062539248_2669903447" />
	<connection from="261369866_2669903323_2062539248_2669903447" to="261369866_2669903323_2062539248_2669903445" />
	<connection from="261369866_2669903323_2062539248_2669903445" to="261369866_2669903323_2062539248_2669903442" />
	<connection from="261369866_2669903323_2062539248_2669903442" to="261369866_2669903323_2062539248_2669903440" />
	<connection from="261369866_2669903323_2062539248_2669903440" to="261369866_2669903323_2062539248_2669903438" />
	<connection from="261369866_2669903323_2062539248_2669903438" to="261369866_2669903323_2062539248_2669903430" />
	<connection from="261369866_2669903323_2062539248_2669903430" to="261369866_2669903323_2062539248_2669903428" />
	<connection from="261369866_2669903323_2062539248_2669903428" to="261369866_2669903323_2062539248_2669903425" />
	<connection from="261369866_2669903323_2062539248_2669903425" to="261369866_2669903323_2062539248_2669903423" />
	<connection from="261369866_2669903323_2062539248_2669903423" to="261369866_2669903323_2062539248_2669903421" />
	<connection from="261369866_2669903323_2062539248_2669903421" to="261369866_2669903323_2062539248_2669903419" />
	<connection from="261369866_2669903323_2062539248_2669903419" to="261369866_2669903323_2062539248_2669903417" />
	<connection from="261369866_2669903323_2062539248_2669903417" to="261369866_2669903323_2062539248_2669903415" />
	<connection from="261369866_2669903323_2062539248_2669903415" to="261369866_2669903323_2062539248_2669903412" />
	<connection from="261369866_2669903323_2062539248_2669903412" to="261369866_2669903323_2062539248_2669903410" />
	<connection from="261369866_2669903323_2062539248_2669903410" to="261369866_2669903323_2062539248_2669903408" />
	<connection from="261369866_2669903323_2062539248_2669903408" to="261369866_2669903323_2062539248_2669903406" />
	<connection from="261369866_2669903323_2062539248_2669903406" to="261369866_2669903323_2062539248_2669903404" />
	<connection from="261369866_2669903323_2062539248_2669903404" to="261369866_2669903323_2062539248_2669903402" />
	<connection from="261369866_2669903323_2062539248_2669903402" to="261369866_2669903323_2062539248_2669903400" />
	<connection from="261369866_2669903323_2062539248_2669903400" to="261369866_2669903323_2062539248_2669903398" />
	<connection from="261369866_2669903323_2062539248_2669903398" to="261369866_2669903323_2062539248_2669903395" />
	<connection from="261369866_2669903323_2062539248_2669903395" to="261369866_2062539248_2669903323_2062539248" />
	<connection from="261369866_2669903323_2062539248_2669903395" to="195837892_2062539248_6177088919_2062539248" />
	<connection from="261369866_2669903323_2062539248_2669903395" to="195837892_2062539248_1937769548_2062539248" />
	<connection from="692842015_6504649769_6504649734_6504649769" to="692842015_6504649769_6504649734_6504649768" />
	<connection from="692842015_6504649769_6504649734_6504649768" to="692842015_6504649769_6504649734_6504649767" />
	<connection from="692842015_6504649769_6504649734_6504649767" to="692842015_6504649769_6504649734_6504649766" />
	<connection from="692842015_6504649769_6504649734_6504649766" to="692842015_6504649769_6504649734_6504649765" />
	<connection from="692842015_6504649769_6504649734_6504649765" to="692842015_6504649769_6504649734_6504649764" />
	<connection from="692842015_6504649769_6504649734_6504649764" to="692842015_6504649769_6504649734_6504649763" />
	<connection from="692842015_6504649769_6504649734_6504649763" to="692842015_6504649769_6504649734_6504649762" />
	<connection from="692842015_6504649769_6504649734_6504649762" to="692842015_6504649769_6504649734_6504649761" />
	<connection from="692842015_6504649769_6504649734_6504649761" to="692842015_6504649769_6504649734_6504649760" />
	<connection from="692842015_6504649769_6504649734_6504649760" to="692842015_6504649769_6504649734_6504649759" />
	<connection from="692842015_6504649769_6504649734_6504649759" to="692842015_6504649769_6504649734_6504649758" />
	<connection from="692842015_6504649769_6504649734_6504649758" to="692842015_6504649769_6504649734_6504649757" />
	<connection from="692842015_6504649769_6504649734_6504649757" to="692842015_6504649769_6504649734_6504649756" />
	<connection from="692842015_6504649769_6504649734_6504649756" to="692842015_6504649769_6504649734_6504649755" />
	<connection from="692842015_6504649769_6504649734_6504649755" to="692842015_6504649769_6504649734_6504649754" />
	<connection from="692842015_6504649769_6504649734_6504649754" to="692842015_6504649769_6504649734_6504649753" />
	<connection from="692842015_6504649769_6504649734_6504649753" to="692842015_6504649769_6504649734_6504649752" />
	<connection from="692842015_6504649769_6504649734_6504649752" to="692842015_6504649769_6504649734_6504649751" />
	<connection from="692842015_6504649769_6504649734_6504649751" to="692842015_6504649769_6504649734_6504649750" />
	<connection from="692842015_6504649769_6504649734_6504649750" to="692842015_6504649769_6504649734_6504649749" />
	<connection from="692842015_6504649769_6504649734_6504649749" to="692842015_6504649769_6504649734_6504649748" />
	<connection from="692842015_6504649769_6504649734_6504649748" to="692842015_6504649769_6504649734_6504649747" />
	<connection from="692842015_6504649769_6504649734_6504649747" to="692842015_6504649769_6504649734_6504649746" />
	<connection from="692842015_6504649769_6504649734_6504649746" to="692842015_6504649769_6504649734_6504649745" />
	<connection from="692842015_6504649769_6504649734_6504649745" to="692842015_6504649769_6504649734_6504649744" />
	<connection from="692842015_6504649769_6504649734_6504649744" to="692842015_6504649769_6504649734_6504649743" />
	<connection from="692842015_6504649769_6504649734_6504649743" to="692842015_6504649769_6504649734_6504649742" />
	<connection from="692842015_6504649769_6504649734_6504649742" to="692842015_6504649769_6504649734_6504649741" />
	<connection from="692842015_6504649769_6504649734_6504649741" to="692842015_6504649769_6504649734_6504649740" />
	<connection from="692842015_6504649769_6504649734_6504649740" to="692842015_6504649769_6504649734_6504649739" />
	<connection from="692842015_6504649769_6504649734_6504649739" to="692842015_6504649769_6504649734_6504649738" />
	<connection from="692842015_6504649769_6504649734_6504649738" to="692842015_6504649769_6504649734_6504649737" />
	<connection from="692842015_6504649769_6504649734_6504649737" to="692842015_6504649769_6504649734_6504649736" />
	<connection from="692842015_6504649769_6504649734_6504649736" to="692842015_6504649769_6504649734_6504649735" />
	<connection from="692842015_6504649769_6504649734_6504649735" to="726996230_6504649734_6504649733_6504649734" />
	<connection from="692842015_6504649769_6504649734_6504649735" to="692842015_6504649734_6504649769_6504649734" />
	<connection from="692842015_6504649769_6504649734_6504649735" to="726996230_6504649734_2062531967_6504649734" />
	<connection from="261369864_2669903336_2669903337_2669903336" to="261369864_2669903336_2669903337_2669903340" />
	<connection from="261369864_2669903336_2669903337_2669903340" to="261369864_2669903336_2669903337_2669903339" />
	<connection from="261369864_2669903336_2669903337_2669903339" to="261369864_2669903336_2669903337_2669903338" />
	<connection from="261369864_2669903336_2669903337_2669903338" to="261369864_2669903337_2669903336_2669903337" />
	<connection from="195837917_2062531977_2062531967_2062531977" to="195837917_2062531977_2062531967_2062534796" />
	<connection from="195837917_2062531977_2062531967_2062534796" to="195837917_2062531977_2062531967_3154447946" />
	<connection from="195837917_2062531977_2062531967_3154447946" to="195837917_2062531977_2062531967_3154447941" />
	<connection from="195837917_2062531977_2062531967_3154447941" to="195837917_2062531977_2062531967_3154448087" />
	<connection from="195837917_2062531977_2062531967_3154448087" to="195837917_2062531977_2062531967_2062534800" />
	<connection from="195837917_2062531977_2062531967_2062534800" to="195837917_2062531977_2062531967_3154447937" />
	<connection from="195837917_2062531977_2062531967_3154447937" to="195837917_2062531977_2062531967_2062534798" />
	<connection from="195837917_2062531977_2062531967_2062534798" to="195837917_2062531977_2062531967_3154447932" />
	<connection from="195837917_2062531977_2062531967_3154447932" to="195837917_2062531977_2062531967_3154448063" />
	<connection from="195837917_2062531977_2062531967_3154448063" to="195837917_2062531977_2062531967_2062534803" />
	<connection from="195837917_2062531977_2062531967_2062534803" to="195837917_2062531977_2062531967_3154447951" />
	<connection from="195837917_2062531977_2062531967_3154447951" to="195837917_2062531977_2062531967_3154447958" />
	<connection from="195837917_2062531977_2062531967_3154447958" to="195837917_2062531977_2062531967_2062534794" />
	<connection from="195837917_2062531977_2062531967_2062534794" to="195837917_2062531977_2062531967_3154448083" />
	<connection from="195837917_2062531977_2062531967_3154448083" to="195837917_2062531977_2062531967_2062536786" />
	<connection from="195837917_2062531977_2062531967_2062536786" to="195837917_2062531977_2062531967_2062536792" />
	<connection from="195837917_2062531977_2062531967_2062536792" to="195837917_2062531977_2062531967_2062536795" />
	<connection from="195837917_2062531977_2062531967_2062536795" to="195837917_2062531977_2062531967_2062536789" />
	<connection from="195837917_2062531977_2062531967_2062536789" to="726996230_2062531967_6504649734_2062531967" />
	<connection from="195837917_2062531977_2062531967_2062536789" to="195837917_2062531967_2062531977_2062531967" />
	<connection from="195837917_2062531977_2062531967_2062536789" to="726996230_2062531967_6504649769_2062531967" />
	<connection from="659770278_6177088919_1239883923_6177088919" to="659770278_6177088919_1239883923_6177088918" />
	<connection from="659770278_6177088919_1239883923_6177088918" to="659770278_6177088919_1239883923_6177088917" />
	<connection from="659770278_6177088919_1239883923_6177088917" to="659770278_6177088919_1239883923_6177088916" />
	<connection from="659770278_6177088919_1239883923_6177088916" to="659770278_6177088919_1239883923_6177088915" />
	<connection from="659770278_6177088919_1239883923_6177088915" to="659770278_6177088919_1239883923_6177088914" />
	<connection from="659770278_6177088919_1239883923_6177088914" to="659770278_6177088919_1239883923_6177088913" />
	<connection from="659770278_6177088919_1239883923_6177088913" to="659770278_6177088919_1239883923_6177088912" />
	<connection from="659770278_6177088919_1239883923_6177088912" to="659770278_6177088919_1239883923_6177088911" />
	<connection from="659770278_6177088919_1239883923_6177088911" to="659770278_1239883923_6177088919_1239883923" />
	<connection from="659770278_6177088919_1239883923_6177088911" to="107987340_1239883923_1239883924_1239883923" />
	<connection from="659770278_6177088919_1239883923_6177088911" to="107987340_1239883923_354969859_1239883923" />
	<connection from="726996232_6813314522_3154447938_6813314522" to="726996232_6813314522_3154447938_6813314521" />
	<connection from="726996232_6813314522_3154447938_6813314521" to="726996232_6813314522_3154447938_6813314520" />
	<connection from="726996232_6813314522_3154447938_6813314520" to="726996232_6813314522_3154447938_6813314519" />
	<connection from="726996232_6813314522_3154447938_6813314519" to="726996232_6813314522_3154447938_6813314518" />
	<connection from="726996232_6813314522_3154447938_6813314518" to="726996232_6813314522_3154447938_6813314517" />
	<connection from="726996232_6813314522_3154447938_6813314517" to="726996232_6813314522_3154447938_6813314516" />
	<connection from="726996232_6813314522_3154447938_6813314516" to="726996232_6813314522_3154447938_6813314515" />
	<connection from="726996232_6813314522_3154447938_6813314515" to="726996232_6813314522_3154447938_6813314514" />
	<connection from="726996232_6813314522_3154447938_6813314514" to="726996232_6813314522_3154447938_6813314513" />
	<connection from="726996232_6813314522_3154447938_6813314513" to="726996232_6813314522_3154447938_6813314512" />
	<connection from="726996232_6813314522_3154447938_6813314512" to="726996230_3154447938_2062531977_3154447938" />
	<connection from="726996232_6813314522_3154447938_6813314512" to="726996230_3154447938_6504649769_3154447938" />
	<connection from="726996232_6813314522_3154447938_6813314512" to="726996232_3154447938_6813314522_3154447938" />
	<connection from="692842014_6504649733_6504649706_6504649733" to="692842014_6504649733_6504649706_6504649732" />
	<connection from="692842014_6504649733_6504649706_6504649732" to="692842014_6504649733_6504649706_6504649731" />
	<connection from="692842014_6504649733_6504649706_6504649731" to="692842014_6504649733_6504649706_6504649730" />
	<connection from="692842014_6504649733_6504649706_6504649730" to="692842014_6504649733_6504649706_6504649729" />
	<connection from="692842014_6504649733_6504649706_6504649729" to="692842014_6504649733_6504649706_6504649728" />
	<connection from="692842014_6504649733_6504649706_6504649728" to="692842014_6504649733_6504649706_6504649727" />
	<connection from="692842014_6504649733_6504649706_6504649727" to="692842014_6504649733_6504649706_6504649726" />
	<connection from="692842014_6504649733_6504649706_6504649726" to="692842014_6504649733_6504649706_6504649725" />
	<connection from="692842014_6504649733_6504649706_6504649725" to="692842014_6504649733_6504649706_6504649724" />
	<connection from="692842014_6504649733_6504649706_6504649724" to="692842014_6504649733_6504649706_6504649723" />
	<connection from="692842014_6504649733_6504649706_6504649723" to="692842014_6504649733_6504649706_6504649722" />
	<connection from="692842014_6504649733_6504649706_6504649722" to="692842014_6504649733_6504649706_6504649721" />
	<connection from="692842014_6504649733_6504649706_6504649721" to="692842014_6504649733_6504649706_6504649720" />
	<connection from="692842014_6504649733_6504649706_6504649720" to="692842014_6504649733_6504649706_6504649719" />
	<connection from="692842014_6504649733_6504649706_6504649719" to="692842014_6504649733_6504649706_6504649718" />
	<connection from="692842014_6504649733_6504649706_6504649718" to="692842014_6504649733_6504649706_6504649717" />
	<connection from="692842014_6504649733_6504649706_6504649717" to="692842014_6504649733_6504649706_6504649716" />
	<connection from="692842014_6504649733_6504649706_6504649716" to="692842014_6504649733_6504649706_6504649715" />
	<connection from="692842014_6504649733_6504649706_6504649715" to="692842014_6504649733_6504649706_6504649714" />
	<connection from="692842014_6504649733_6504649706_6504649714" to="692842014_6504649733_6504649706_6504649713" />
	<connection from="692842014_6504649733_6504649706_6504649713" to="692842014_6504649733_6504649706_6504649712" />
	<connection from="692842014_6504649733_6504649706_6504649712" to="692842014_6504649733_6504649706_6504649711" />
	<connection from="692842014_6504649733_6504649706_6504649711" to="692842014_6504649733_6504649706_6504649710" />
	<connection from="692842014_6504649733_6504649706_6504649710" to="692842014_6504649733_6504649706_6504649709" />
	<connection from="692842014_6504649733_6504649706_6504649709" to="692842014_6504649733_6504649706_6504649708" />
	<connection from="692842014_6504649733_6504649706_6504649708" to="692842014_6504649733_6504649706_6504649707" />
	<connection from="692842014_6504649733_6504649706_6504649707" to="692842014_6504649706_6504649733_6504649706" />
	<connection from="692842014_6504649706_6504649733_6504649706" to="692842014_6504649706_6504649733_6504649707" />
	<connection from="692842014_6504649706_6504649733_6504649707" to="692842014_6504649706_6504649733_6504649708" />
	<connection from="692842014_6504649706_6504649733_6504649708" to="692842014_6504649706_6504649733_6504649709" />
	<connection from="692842014_6504649706_6504649733_6504649709" to="692842014_6504649706_6504649733_6504649710" />
	<connection from="692842014_6504649706_6504649733_6504649710" to="692842014_6504649706_6504649733_6504649711" />
	<connection from="692842014_6504649706_6504649733_6504649711" to="692842014_6504649706_6504649733_6504649712" />
	<connection from="692842014_6504649706_6504649733_6504649712" to="692842014_6504649706_6504649733_6504649713" />
	<connection from="692842014_6504649706_6504649733_6504649713" to="692842014_6504649706_6504649733_6504649714" />
	<connection from="692842014_6504649706_6504649733_6504649714" to="692842014_6504649706_6504649733_6504649715" />
	<connection from="692842014_6504649706_6504649733_6504649715" to="692842014_6504649706_6504649733_6504649716" />
	<connection from="692842014_6504649706_6504649733_6504649716" to="692842014_6504649706_6504649733_6504649717" />
	<connection from="692842014_6504649706_6504649733_6504649717" to="692842014_6504649706_6504649733_6504649718" />
	<connection from="692842014_6504649706_6504649733_6504649718" to="692842014_6504649706_6504649733_6504649719" />
	<connection from="692842014_6504649706_6504649733_6504649719" to="692842014_6504649706_6504649733_6504649720" />
	<connection from="692842014_6504649706_6504649733_6504649720" to="692842014_6504649706_6504649733_6504649721" />
	<connection from="692842014_6504649706_6504649733_6504649721" to="692842014_6504649706_6504649733_6504649722" />
	<connection from="692842014_6504649706_6504649733_6504649722" to="692842014_6504649706_6504649733_6504649723" />
	<connection from="692842014_6504649706_6504649733_6504649723" to="692842014_6504649706_6504649733_6504649724" />
	<connection from="692842014_6504649706_6504649733_6504649724" to="692842014_6504649706_6504649733_6504649725" />
	<connection from="692842014_6504649706_6504649733_6504649725" to="692842014_6504649706_6504649733_6504649726" />
	<connection from="692842014_6504649706_6504649733_6504649726" to="692842014_6504649706_6504649733_6504649727" />
	<connection from="692842014_6504649706_6504649733_6504649727" to="692842014_6504649706_6504649733_6504649728" />
	<connection from="692842014_6504649706_6504649733_6504649728" to="692842014_6504649706_6504649733_6504649729" />
	<connection from="692842014_6504649706_6504649733_6504649729" to="692842014_6504649706_6504649733_6504649730" />
	<connection from="692842014_6504649706_6504649733_6504649730" to="692842014_6504649706_6504649733_6504649731" />
	<connection from="692842014_6504649706_6504649733_6504649731" to="692842014_6504649706_6504649733_6504649732" />
	<connection from="692842014_6504649706_6504649733_6504649732" to="726996230_6504649733_1239883924_6504649733" />
	<connection from="692842014_6504649706_6504649733_6504649732" to="692842014_6504649733_6504649706_6504649733" />
	<connection from="692842014_6504649706_6504649733_6504649732" to="726996230_6504649733_6504649734_6504649733" />
	<connection from="261369863_2669903323_2669903336_2669903323" to="261369863_2669903323_2669903336_2669903324" />
	<connection from="261369863_2669903323_2669903336_2669903324" to="261369863_2669903323_2669903336_2669903325" />
	<connection from="261369863_2669903323_2669903336_2669903325" to="261369863_2669903323_2669903336_2669903326" />
	<connection from="261369863_2669903323_2669903336_2669903326" to="261369863_2669903323_2669903336_2669903327" />
	<connection from="261369863_2669903323_2669903336_2669903327" to="261369863_2669903323_2669903336_2669903328" />
	<connection from="261369863_2669903323_2669903336_2669903328" to="261369863_2669903323_2669903336_2669903329" />
	<connection from="261369863_2669903323_2669903336_2669903329" to="261369863_2669903323_2669903336_2669903330" />
	<connection from="261369863_2669903323_2669903336_2669903330" to="261369863_2669903323_2669903336_2669903331" />
	<connection from="261369863_2669903323_2669903336_2669903331" to="261369863_2669903323_2669903336_2669903332" />
	<connection from="261369863_2669903323_2669903336_2669903332" to="261369863_2669903323_2669903336_2669903333" />
	<connection from="261369863_2669903323_2669903336_2669903333" to="261369863_2669903323_2669903336_2669903334" />
	<connection from="261369863_2669903323_2669903336_2669903334" to="261369863_2669903323_2669903336_2669903335" />
	<connection from="261369863_2669903323_2669903336_2669903335" to="261369864_2669903336_2669903357_2669903336" />
	<connection from="261369863_2669903323_2669903336_2669903335" to="261369863_2669903336_2669903323_2669903336" />
	<connection from="261369863_2669903323_2669903336_2669903335" to="261369864_2669903336_2669903337_2669903336" />
	<connection from="107987340_1239883923_1239883924_1239883923" to="107987340_1239883923_1239883924_1239883940" />
	<connection from="107987340_1239883923_1239883924_1239883940" to="107987340_1239883923_1239883924_1239883939" />
	<connection from="107987340_1239883923_1239883924_1239883939" to="107987340_1239883923_1239883924_1239883938" />
	<connection from="107987340_1239883923_1239883924_1239883938" to="107987340_1239883923_1239883924_1239897970" />
	<connection from="107987340_1239883923_1239883924_1239897970" to="107987340_1239883923_1239883924_1239883911" />
	<connection from="107987340_1239883923_1239883924_1239883911" to="107987340_1239883923_1239883924_1239883933" />
	<connection from="107987340_1239883923_1239883924_1239883933" to="107987340_1239883923_1239883924_1239883932" />