<edges>
	<edge id="726996230_6504649734_6504649733_6504649734" from="6504649734" to="6504649733" numLanes="1" speed="8.33" />
	<edge id="726996230_6504649733_1239883924_6504649733" from="6504649733" to="2062539234" numLanes="1" speed="8.33" />
	<edge id="726996230_6504649733_1239883924_2062539234" from="2062539234" to="2062539238" numLanes="1" speed="8.33" />
	<edge id="726996230_6504649733_1239883924_2062539238" from="2062539238" to="1239883924" numLanes="1" speed="8.33" />
	<edge id="692842015_6504649734_6504649769_6504649734" from="6504649734" to="6504649735" numLanes="1" speed="8.33" />
	<edge id="692842015_6504649734_6504649769_6504649735" from="6504649735" to="6504649736" numLanes="1" speed="8.33" />
	<edge id="692842015_6504649734_6504649769_6504649736" from="6504649736" to="6504649737" numLanes="1" speed="8.33" />
	<edge id="692842015_6504649734_6504649769_6504649737" from="6504649737" to="6504649738" numLanes="1" speed="8.33" />
	<edge id="692842015_6504649734_6504649769_6504649738" from="6504649738" to="6504649739" numLanes="1" speed="8.33" />
	<edge id="692842015_6504649734_6504649769_6504649739" from="6504649739" to="6504649740" numLanes="1" speed="8.33" />
	<edge id="692842015_6504649734_6504649769_6504649740" from="6504649740" to="6504649741" numLanes="1" speed="8.33" />
	<edge id="692842015_6504649734_6504649769_6504649741" from="6504649741" to="6504649742" numLanes="1" speed="8.33" />
	<edge id="692842015_6504649734_6504649769_6504649742" from="6504649742" to="6504649743" numLanes="1" speed="8.33" />
	<edge id="692842015_6504649734_6504649769_6504649743" from="6504649743" to="6504649744" numLanes="1" speed="8.33" />
	<edge id="692842015_6504649734_6504649769_6504649744" from="6504649744" to="6504649745" numLanes="1" speed="8.33" />
	<edge id="692842015_6504649734_6504649769_6504649745" from="6504649745" to="6504649746" numLanes="1" speed="8.33" />
	<edge id="692842015_6504649734_6504649769_6504649746" from="6504649746" to="6504649747" numLanes="1" speed="8.33" />
	<edge id="692842015_6504649734_6504649769_6504649747" from="6504649747" to="6504649748" numLanes="1" speed="8.33" />
	<edge id="692842015_6504649734_6504649769_6504649748" from="6504649748" to="6504649749" numLanes="1" speed="8.33" />
	<edge id="692842015_6504649734_6504649769_6504649749" from="6504649749" to="6504649750" numLanes="1" speed="8.33" />
	<edge id="692842015_6504649734_6504649769_6504649750" from="6504649750" to="6504649751" numLanes="1" speed="8.33" />
	<edge id="692842015_6504649734_6504649769_6504649751" from="6504649751" to="6504649752" numLanes="1" speed="8.33" />
	<edge id="692842015_6504649734_6504649769_6504649752" from="6504649752" to="6504649753" numLanes="1" speed="8.33" />
	<edge id="692842015_6504649734_6504649769_6504649753" from="6504649753" to="6504649754" numLanes="1" speed="8.33" />
	<edge id="692842015_6504649734_6504649769_6504649754" from="6504649754" to="6504649755" numLanes="1" speed="8.33" />
	<edge id="692842015_6504649734_6504649769_6504649755" from="6504649755" to="6504649756" numLanes="1" speed="8.33" />
	<edge id="692842015_6504649734_6504649769_6504649756" from="6504649756" to="6504649757" numLanes="1" speed="8.33" />
	<edge id="692842015_6504649734_6504649769_6504649757" from="6504649757" to="6504649758" numLanes="1" speed="8.33" />
	<edge id="692842015_6504649734_6504649769_6504649758" from="6504649758" to="6504649759" numLanes="1" speed="8.33" />
	<edge id="692842015_6504649734_6504649769_6504649759" from="6504649759" to="6504649760" numLanes="1" speed="8.33" />
	<edge id="692842015_6504649734_6504649769_6504649760" from="6504649760" to="6504649761" numLanes="1" speed="8.33" />
	<edge id="692842015_6504649734_6504649769_6504649761" from="6504649761" to="6504649762" numLanes="1" speed="8.33" />
	<edge id="692842015_6504649734_6504649769_6504649762" from="6504649762" to="6504649763" numLanes="1" speed="8.33" />
	<edge id="692842015_6504649734_6504649769_6504649763" from="6504649763" to="6504649764" numLanes="1" speed="8.33" />
	<edge id="692842015_6504649734_6504649769_6504649764" from="6504649764" to="6504649765" numLanes="1" speed="8.33" />
	<edge id="692842015_6504649734_6504649769_6504649765" from="6504649765" to="6504649766" numLanes="1" speed="8.33" />
	<edge id="692842015_6504649734_6504649769_6504649766" from="6504649766" to="6504649767" numLanes="1" speed="8.33" />
	<edge id="692842015_6504649734_6504649769_6504649767" from="6504649767" to="6504649768" numLanes="1" speed="8.33" />
	<edge id="692842015_6504649734_6504649769_6504649768" from="6504649768" to="6504649769" numLanes="1" speed="8.33" />
	<edge id="195837886_1236745786_2062531405_1236745786" from="1236745786" to="2062531532" numLanes="1" speed="13.89" />
	<edge id="195837886_1236745786_2062531405_2062531532" from="2062531532" to="2444550033" numLanes="1" speed="13.89" />
	<edge id="195837886_1236745786_2062531405_2444550033" from="2444550033" to="2444550036" numLanes="1" speed="13.89" />
	<edge id="195837886_1236745786_2062531405_2444550036" from="2444550036" to="2062531526" numLanes="1" speed="13.89" />
	<edge id="195837886_1236745786_2062531405_2062531526" from="2062531526" to="2444550038" numLanes="1" speed="13.89" />
	<edge id="195837886_1236745786_2062531405_2444550038" from="2444550038" to="2062531530" numLanes="1" speed="13.89" />
	<edge id="195837886_1236745786_2062531405_2062531530" from="2062531530" to="2444550030" numLanes="1" speed="13.89" />
	<edge id="195837886_1236745786_2062531405_2444550030" from="2444550030" to="2062531536" numLanes="1" speed="13.89" />
	<edge id="195837886_1236745786_2062531405_2062531536" from="2062531536" to="2062531523" numLanes="1" speed="13.89" />
	<edge id="195837886_1236745786_2062531405_2062531523" from="2062531523" to="2444550035" numLanes="1" speed="13.89" />
	<edge id="195837886_1236745786_2062531405_2444550035" from="2444550035" to="2062531525" numLanes="1" speed="13.89" />
	<edge id="195837886_1236745786_2062531405_2062531525" from="2062531525" to="2444550032" numLanes="1" speed="13.89" />
	<edge id="195837886_1236745786_2062531405_2444550032" from="2444550032" to="2062531529" numLanes="1" speed="13.89" />
	<edge id="195837886_1236745786_2062531405_2062531529" from="2062531529" to="2444550041" numLanes="1" speed="13.89" />
	<edge id="195837886_1236745786_2062531405_2444550041" from="2444550041" to="2062531527" numLanes="1" speed="13.89" />
	<edge id="195837886_1236745786_2062531405_2062531527" from="2062531527" to="2444550044" numLanes="1" speed="13.89" />
	<edge id="195837886_1236745786_2062531405_2444550044" from="2444550044" to="2444550039" numLanes="1" speed="13.89" />
	<edge id="195837886_1236745786_2062531405_2444550039" from="2444550039" to="2062531521" numLanes="1" speed="13.89" />
	<edge id="195837886_1236745786_2062531405_2062531521" from="2062531521" to="2062531540" numLanes="1" speed="13.89" />
	<edge id="195837886_1236745786_2062531405_2062531540" from="2062531540" to="2444550029" numLanes="1" speed="13.89" />
	<edge id="195837886_1236745786_2062531405_2444550029" from="2444550029" to="2062531524" numLanes="1" speed="13.89" />
	<edge id="195837886_1236745786_2062531405_2062531524" from="2062531524" to="2062531405" numLanes="1" speed="13.89" />
	<edge id="659675633_6176268106_6176268115_6176268106" from="6176268106" to="6176268107" numLanes="1" speed="19.44" />
	<edge id="659675633_6176268106_6176268115_6176268107" from="6176268107" to="6176268108" numLanes="1" speed="19.44" />
	<edge id="659675633_6176268106_6176268115_6176268108" from="6176268108" to="6176268113" numLanes="1" speed="19.44" />
	<edge id="659675633_6176268106_6176268115_6176268113" from="6176268113" to="6176268114" numLanes="1" speed="19.44" />
	<edge id="659675633_6176268106_6176268115_6176268114" from="6176268114" to="6176268115" numLanes="1" speed="19.44" />
	<edge id="659675629_6176268120_1236745828_6176268120" from="6176268120" to="1236745828" numLanes="1" speed="19.44" />
	<edge id="261369866_2669903323_2062539248_2669903323" from="2669903323" to="2669903447" numLanes="1" speed="8.33" />
	<edge id="261369866_2669903323_2062539248_2669903447" from="2669903447" to="2669903445" numLanes="1" speed="8.33" />
	<edge id="261369866_2669903323_2062539248_2669903445" from="2669903445" to="2669903442" numLanes="1" speed="8.33" />
	<edge id="261369866_2669903323_2062539248_2669903442" from="2669903442" to="2669903440" numLanes="1" speed="8.33" />
	<edge id="261369866_2669903323_2062539248_2669903440" from="2669903440" to="2669903438" numLanes="1" speed="8.33" />
	<edge id="261369866_2669903323_2062539248_2669903438" from="2669903438" to="2669903430" numLanes="1" speed="8.33" />
	<edge id="261369866_2669903323_2062539248_2669903430" from="2669903430" to="2669903428" numLanes="1" speed="8.33" />
	<edge id="261369866_2669903323_2062539248_2669903428" from="2669903428" to="2669903425" numLanes="1" speed="8.33" />
	<edge id="261369866_2669903323_2062539248_2669903425" from="2669903425" to="2669903423" numLanes="1" speed="8.33" />
	<edge id="261369866_2669903323_2062539248_2669903423" from="2669903423" to="2669903421" numLanes="1" speed="8.33" />
	<edge id="261369866_2669903323_2062539248_2669903421" from="2669903421" to="2669903419" numLanes="1" speed="8.33" />
	<edge id="261369866_2669903323_2062539248_2669903419" from="2669903419" to="2669903417" numLanes="1" speed="8.33" />
	<edge id="261369866_2669903323_2062539248_2669903417" from="2669903417" to="2669903415" numLanes="1" speed="8.33" />
	<edge id="261369866_2669903323_2062539248_2669903415" from="2669903415" to="2669903412" numLanes="1" speed="8.33" />
	<edge id="261369866_2669903323_2062539248_2669903412" from="2669903412" to="2669903410" numLanes="1" speed="8.33" />
	<edge id="261369866_2669903323_2062539248_2669903410" from="2669903410" to="2669903408" numLanes="1" speed="8.33" />
	<edge id="261369866_2669903323_2062539248_2669903408" from="2669903408" to="2669903406" numLanes="1" speed="8.33" />
	<edge id="261369866_2669903323_2062539248_2669903406" from="2669903406" to="2669903404" numLanes="1" speed="8.33" />
	<edge id="261369866_2669903323_2062539248_2669903404" from="2669903404" to="2669903402" numLanes="1" speed="8.33" />
	<edge id="261369866_2669903323_2062539248_2669903402" from="2669903402" to="2669903400" numLanes="1" speed="8.33" />
	<edge id="261369866_2669903323_2062539248_2669903400" from="2669903400" to="2669903398" numLanes="1" speed="8.33" />
	<edge id="261369866_2669903323_2062539248_2669903398" from="2669903398" to="2669903395" numLanes="1" speed="8.33" />
	<edge id="261369866_2669903323_2062539248_2669903395" from="2669903395" to="2062539248" numLanes="1" speed="8.33" />
	<edge id="692842015_6504649769_6504649734_6504649769" from="6504649769" to="6504649768" numLanes="1" speed="8.33" />
	<edge id="692842015_6504649769_6504649734_6504649768" from="6504649768" to="6504649767" numLanes="1" speed="8.33" />
	<edge id="692842015_6504649769_6504649734_6504649767" from="6504649767" to="6504649766" numLanes="1" speed="8.33" />
	<edge id="692842015_6504649769_6504649734_6504649766" from="6504649766" to="6504649765" numLanes="1" speed="8.33" />
	<edge id="692842015_6504649769_6504649734_6504649765" from="6504649765" to="6504649764" numLanes="1" speed="8.33" />
	<edge id="692842015_6504649769_6504649734_6504649764" from="6504649764" to="6504649763" numLanes="1" speed="8.33" />
	<edge id="692842015_6504649769_6504649734_6504649763" from="6504649763" to="6504649762" numLanes="1" speed="8.33" />
	<edge id="692842015_6504649769_6504649734_6504649762" from="6504649762" to="6504649761" numLanes="1" speed="8.33" />
	<edge id="692842015_6504649769_6504649734_6504649761" from="6504649761" to="6504649760" numLanes="1" speed="8.33" />
	<edge id="692842015_6504649769_6504649734_6504649760" from="6504649760" to="6504649759" numLanes="1" speed="8.33" />
	<edge id="692842015_6504649769_6504649734_6504649759" from="6504649759" to="6504649758" numLanes="1" speed="8.33" />
	<edge id="692842015_6504649769_6504649734_6504649758" from="6504649758" to="6504649757" numLanes="1" speed="8.33" />
	<edge id="692842015_6504649769_6504649734_6504649757" from="6504649757" to="6504649756" numLanes="1" speed="8.33" />
	<edge id="692842015_6504649769_6504649734_6504649756" from="6504649756" to="6504649755" numLanes="1" speed="8.33" />
	<edge id="692842015_6504649769_6504649734_6504649755" from="6504649755" to="6504649754" numLanes="1" speed="8.33" />
	<edge id="692842015_6504649769_6504649734_6504649754" from="6504649754" to="6504649753" numLanes="1" speed="8.33" />
	<edge id="692842015_6504649769_6504649734_6504649753" from="6504649753" to="6504649752" numLanes="1" speed="8.33" />
	<edge id="692842015_6504649769_6504649734_6504649752" from="6504649752" to="6504649751" numLanes="1" speed="8.33" />
	<edge id="692842015_6504649769_6504649734_6504649751" from="6504649751" to="6504649750" numLanes="1" speed="8.33" />
	<edge id="692842015_6504649769_6504649734_6504649750" from="6504649750" to="6504649749" numLanes="1" speed="8.33" />
	<edge id="692842015_6504649769_6504649734_6504649749" from="6504649749" to="6504649748" numLanes="1" speed="8.33" />
	<edge id="692842015_6504649769_6504649734_6504649748" from="6504649748" to="6504649747" numLanes="1" speed="8.33" />
	<edge id="692842015_6504649769_6504649734_6504649747" from="6504649747" to="6504649746" numLanes="1" speed="8.33" />
	<edge id="692842015_6504649769_6504649734_6504649746" from="6504649746" to="6504649745" numLanes="1" speed="8.33" />
	<edge id="692842015_6504649769_6504649734_6504649745" from="6504649745" to="6504649744" numLanes="1" speed="8.33" />
	<edge id="692842015_6504649769_6504649734_6504649744" from="6504649744" to="6504649743" numLanes="1" speed="8.33" />
	<edge id="692842015_6504649769_6504649734_6504649743" from="6504649743" to="6504649742" numLanes="1" speed="8.33" />
	<edge id="692842015_6504649769_6504649734_6504649742" from="6504649742" to="6504649741" numLanes="1" speed="8.33" />
	<edge id="692842015_6504649769_6504649734_6504649741" from="6504649741" to="6504649740" numLanes="1" speed="8.33" />
	<edge id="692842015_6504649769_6504649734_6504649740" from="6504649740" to="6504649739" numLanes="1" speed="8.33" />
	<edge id="692842015_6504649769_6504649734_6504649739" from="6504649739" to="6504649738" numLanes="1" speed="8.33" />
	<edge id="692842015_6504649769_6504649734_6504649738" from="6504649738" to="6504649737" numLanes="1" speed="8.33" />
	<edge id="692842015_6504649769_6504649734_6504649737" from="6504649737" to="6504649736" numLanes="1" speed="8.33" />
	<edge id="692842015_6504649769_6504649734_6504649736" from="6504649736" to="6504649735" numLanes="1" speed="8.33" />
	<edge id="692842015_6504649769_6504649734_6504649735" from="6504649735" to="6504649734" numLanes="1" speed="8.33" />
	<edge id="261369864_2669903336_2669903337_2669903336" from="2669903336" to="2669903340" numLanes="1" speed="8.33" />
	<edge id="261369864_2669903336_2669903337_2669903340" from="2669903340" to="2669903339" numLanes="1" speed="8.33" />
	<edge id="261369864_2669903336_2669903337_2669903339" from="2669903339" to="2669903338" numLanes="1" speed="8.33" />
	<edge id="261369864_2669903336_2669903337_2669903338" from="2669903338" to="2669903337" numLanes="1" speed="8.33" />
	<edge id="195837917_2062531977_2062531967_2062531977" from="2062531977" to="2062534796" numLanes="1" speed="8.33" />
	<edge id="195837917_2062531977_2062531967_2062534796" from="2062534796" to="3154447946" numLanes="1" speed="8.33" />
	<edge id="195837917_2062531977_2062531967_3154447946" from="3154447946" to="3154447941" numLanes="1" speed="8.33" />
	<edge id="195837917_2062531977_2062531967_3154447941" from="3154447941" to="3154448087" numLanes="1" speed="8.33" />
	<edge id="195837917_2062531977_2062531967_3154448087" from="3154448087" to="2062534800" numLanes="1" speed="8.33" />
	<edge id="195837917_2062531977_2062531967_2062534800" from="2062534800" to="3154447937" numLanes="1" speed="8.33" />
	<edge id="195837917_2062531977_2062531967_3154447937" from="3154447937" to="2062534798" numLanes="1" speed="8.33" />
	<edge id="195837917_2062531977_2062531967_2062534798" from="2062534798" to="3154447932" numLanes="1" speed="8.33" />
	<edge id="195837917_2062531977_2062531967_3154447932" from="3154447932" to="3154448063" numLanes="1" speed="8.33" />
	<edge id="195837917_2062531977_2062531967_3154448063" from="3154448063" to="2062534803" numLanes="1" speed="8.33" />
	<edge id="195837917_2062531977_2062531967_2062534803" from="2062534803" to="3154447951" numLanes="1" speed="8.33" />
	<edge id="195837917_2062531977_2062531967_3154447951" from="3154447951" to="3154447958" numLanes="1" speed="8.33" />
	<edge id="195837917_2062531977_2062531967_3154447958" from="3154447958" to="2062534794" numLanes="1" speed="8.33" />
	<edge id="195837917_2062531977_2062531967_2062534794" from="2062534794" to="3154448083" numLanes="1" speed="8.33" />
	<edge id="195837917_2062531977_2062531967_3154448083" from="3154448083" to="2062536786" numLanes="1" speed="8.33" />
	<edge id="195837917_2062531977_2062531967_2062536786" from="2062536786" to="2062536792" numLanes="1" speed="8.33" />
	<edge id="195837917_2062531977_2062531967_2062536792" from="2062536792" to="2062536795" numLanes="1" speed="8.33" />
	<edge id="195837917_2062531977_2062531967_2062536795" from="2062536795" to="2062536789" numLanes="1" speed="8.33" />
	<edge id="195837917_2062531977_2062531967_2062536789" from="2062536789" to="2062531967" numLanes="1" speed="8.33" />
	<edge id="659770278_6177088919_1239883923_6177088919" from="6177088919" to="6177088918" numLanes="1" speed="8.33" />
	<edge id="659770278_6177088919_1239883923_6177088918" from="6177088918" to="6177088917" numLanes="1" speed="8.33" />
	<edge id="659770278_6177088919_1239883923_6177088917" from="6177088917" to="6177088916" numLanes="1" speed="8.33" />
	<edge id="659770278_6177088919_1239883923_6177088916" from="6177088916" to="6177088915" numLanes="1" speed="8.33" />
	<edge id="659770278_6177088919_1239883923_6177088915" from="6177088915" to="6177088914" numLanes="1" speed="8.33" />
	<edge id="659770278_6177088919_1239883923_6177088914" from="6177088914" to="6177088913" numLanes="1" speed="8.33" />
	<edge id="659770278_6177088919_1239883923_6177088913" from="6177088913" to="6177088912" numLanes="1" speed="8.33" />
	<edge id="659770278_6177088919_1239883923_6177088912" from="6177088912" to="6177088911" numLanes="1" speed="8.33" />
	<edge id="659770278_6177088919_1239883923_6177088911" from="6177088911" to="1239883923" numLanes="1" speed="8.33" />
	<edge id="726996232_6813314522_3154447938_6813314522" from="6813314522" to="6813314521" numLanes="1" speed="8.33" />
	<edge id="726996232_6813314522_3154447938_6813314521" from="6813314521" to="6813314520" numLanes="1" speed="8.33" />
	<edge id="726996232_6813314522_3154447938_6813314520" from="6813314520" to="6813314519" numLanes="1" speed="8.33" />
	<edge id="726996232_6813314522_3154447938_6813314519" from="6813314519" to="6813314518" numLanes="1" speed="8.33" />
	<edge id="726996232_6813314522_3154447938_6813314518" from="6813314518" to="6813314517" numLanes="1" speed="8.33" />
	<edge id="726996232_6813314522_3154447938_6813314517" from="6813314517" to="6813314516" numLanes="1" speed="8.33" />
	<edge id="726996232_6813314522_3154447938_6813314516" from="6813314516" to="6813314515" numLanes="1" speed="8.33" />
	<edge id="726996232_6813314522_3154447938_6813314515" from="6813314515" to="6813314514" numLanes="1" speed="8.33" />
	<edge id="726996232_6813314522_3154447938_6813314514" from="6813314514" to="6813314513" numLanes="1" speed="8.33" />
	<edge id="726996232_6813314522_3154447938_6813314513" from="6813314513" to="6813314512" numLanes="1" speed="8.33" />
	<edge id="726996232_6813314522_3154447938_6813314512" from="6813314512" to="3154447938" numLanes="1" speed="8.33" />
	<edge id="692842014_6504649733_6504649706_6504649733" from="6504649733" to="6504649732" numLanes="1" speed="8.33" />
	<edge id="692842014_6504649733_6504649706_6504649732" from="6504649732" to="6504649731" numLanes="1" speed="8.33" />
	<edge id="692842014_6504649733_6504649706_6504649731" from="6504649731" to="6504649730" numLanes="1" speed="8.33" />
	<edge id="692842014_6504649733_6504649706_6504649730" from="6504649730" to="6504649729" numLanes="1" speed="8.33" />
	<edge id="692842014_6504649733_6504649706_6504649729" from="6504649729" to="6504649728" numLanes="1" speed="8.33" />
	<edge id="692842014_6504649733_6504649706_6504649728" from="6504649728" to="6504649727" numLanes="1" speed="8.33" />
	<edge id="692842014_6504649733_6504649706_6504649727" from="6504649727" to="6504649726" numLanes="1" speed="8.33" />
	<edge id="692842014_6504649733_6504649706_6504649726" from="6504649726" to="6504649725" numLanes="1" speed="8.33" />
	<edge id="692842014_6504649733_6504649706_6504649725" from="6504649725" to="6504649724" numLanes="1" speed="8.33" />
	<edge id="692842014_6504649733_6504649706_6504649724" from="6504649724" to="6504649723" numLanes="1" speed="8.33" />
	<edge id="692842014_6504649733_6504649706_6504649723" from="6504649723" to="6504649722" numLanes="1" speed="8.33" />
	<edge id="692842014_6504649733_6504649706_6504649722" from="6504649722" to="6504649721" numLanes="1" speed="8.33" />
	<edge id="692842014_6504649733_6504649706_6504649721" from="6504649721" to="6504649720" numLanes="1" speed="8.33" />
	<edge id="692842014_6504649733_6504649706_6504649720" from="6504649720" to="6504649719" numLanes="1" speed="8.33" />
	<edge id="692842014_6504649733_6504649706_6504649719" from="6504649719" to="6504649718" numLanes="1" speed="8.33" />
	<edge id="692842014_6504649733_6504649706_6504649718" from="6504649718" to="6504649717" numLanes="1" speed="8.33" />
	<edge id="692842014_6504649733_6504649706_6504649717" from="6504649717" to="6504649716" numLanes="1" speed="8.33" />
	<edge id="692842014_6504649733_6504649706_6504649716" from="6504649716" to="6504649715" numLanes="1" speed="8.33" />
	<edge id="692842014_6504649733_6504649706_6504649715" from="6504649715" to="6504649714" numLanes="1" speed="8.33" />
	<edge id="692842014_6504649733_6504649706_6504649714" from="6504649714" to="6504649713" numLanes="1" speed="8.33" />
	<edge id="692842014_6504649733_6504649706_6504649713" from="6504649713" to="6504649712" numLanes="1" speed="8.33" />
	<edge id="692842014_6504649733_6504649706_6504649712" from="6504649712" to="6504649711" numLanes="1" speed="8.33" />
	<edge id="692842014_6504649733_6504649706_6504649711" from="6504649711" to="6504649710" numLanes="1" speed="8.33" />
	<edge id="692842014_6504649733_6504649706_6504649710" from="6504649710" to="6504649709" numLanes="1" speed="8.33" />
	<edge id="692842014_6504649733_6504649706_6504649709" from="6504649709" to="6504649708" numLanes="1" speed="8.33" />
	<edge id="692842014_6504649733_6504649706_6504649708" from="6504649708" to="6504649707" numLanes="1" speed="8.33" />
	<edge id="692842014_6504649733_6504649706_6504649707" from="6504649707" to="6504649706" numLanes="1" speed="8.33" />
	<edge id="692842014_6504649706_6504649733_6504649706" from="6504649706" to="6504649707" numLanes="1" speed="8.33" />
	<edge id="692842014_6504649706_6504649733_6504649707" from="6504649707" to="6504649708" numLanes="1" speed="8.33" />
	<edge id="692842014_6504649706_6504649733_6504649708" from="6504649708" to="6504649709" numLanes="1" speed="8.33" />
	<edge id="692842014_6504649706_6504649733_6504649709" from="6504649709" to="6504649710" numLanes="1" speed="8.33" />
	<edge id="692842014_6504649706_6504649733_6504649710" from="6504649710" to="6504649711" numLanes="1" speed="8.33" />
	<edge id="692842014_6504649706_6504649733_6504649711" from="6504649711" to="6504649712" numLanes="1" speed="8.33" />
	<edge id="692842014_6504649706_6504649733_6504649712" from="6504649712" to="6504649713" numLanes="1" speed="8.33" />
	<edge id="692842014_6504649706_6504649733_6504649713" from="6504649713" to="6504649714" numLanes="1" speed="8.33" />
	<edge id="692842014_6504649706_6504649733_6504649714" from="6504649714" to="6504649715" numLanes="1" speed="8.33" />
	<edge id="692842014_6504649706_6504649733_6504649715" from="6504649715" to="6504649716" numLanes="1" speed="8.33" />
	<edge id="692842014_6504649706_6504649733_6504649716" from="6504649716" to="6504649717" numLanes="1" speed="8.33" />
	<edge id="692842014_6504649706_6504649733_6504649717" from="6504649717" to="6504649718" numLanes="1" speed="8.33" />
	<edge id="692842014_6504649706_6504649733_6504649718" from="6504649718" to="6504649719" numLanes="1" speed="8.33" />
	<edge id="692842014_6504649706_6504649733_6504649719" from="6504649719" to="6504649720" numLanes="1" speed="8.33" />
	<edge id="692842014_6504649706_6504649733_6504649720" from="6504649720" to="6504649721" numLanes="1" speed="8.33" />
	<edge id="692842014_6504649706_6504649733_6504649721" from="6504649721" to="6504649722" numLanes="1" speed="8.33" />
	<edge id="692842014_6504649706_6504649733_6504649722" from="6504649722" to="6504649723" numLanes="1" speed="8.33" />
	<edge id="692842014_6504649706_6504649733_6504649723" from="6504649723" to="6504649724" numLanes="1" speed="8.33" />
	<edge id="692842014_6504649706_6504649733_6504649724" from="6504649724" to="6504649725" numLanes="1" speed="8.33" />
	<edge id="692842014_6504649706_6504649733_6504649725" from="6504649725" to="6504649726" numLanes="1" speed="8.33" />
	<edge id="692842014_6504649706_6504649733_6504649726" from="6504649726" to="6504649727" numLanes="1" speed="8.33" />
	<edge id="692842014_6504649706_6504649733_6504649727" from="6504649727" to="6504649728" numLanes="1" speed="8.33" />
	<edge id="692842014_6504649706_6504649733_6504649728" from="6504649728" to="6504649729" numLanes="1" speed="8.33" />
	<edge id="692842014_6504649706_6504649733_6504649729" from="6504649729" to="6504649730" numLanes="1" speed="8.33" />
	<edge id="692842014_6504649706_6504649733_6504649730" from="6504649730" to="6504649731" numLanes="1" speed="8.33" />
	<edge id="692842014_6504649706_6504649733_6504649731" from="6504649731" to="6504649732" numLanes="1" speed="8.33" />
	<edge id="692842014_6504649706_6504649733_6504649732" from="6504649732" to="6504649733" numLanes="1" speed="8.33" />
	<edge id="261369863_2669903323_2669903336_2669903323" from="2669903323" to="2669903324" numLanes="1" speed="8.33" />
	<edge id="261369863_2669903323_2669903336_2669903324" from="2669903324" to="2669903325" numLanes="1" speed="8.33" />
	<edge id="261369863_2669903323_2669903336_2669903325" from="2669903325" to="2669903326" numLanes="1" speed="8.33" />
	<edge id="261369863_2669903323_2669903336_2669903326" from="2669903326" to="2669903327" numLanes="1" speed="8.33" />
	<edge id="261369863_2669903323_2669903336_2669903327" from="2669903327" to="2669903328" numLanes="1" speed="8.33" />
	<edge id="261369863_2669903323_2669903336_2669903328" from="2669903328" to="2669903329" numLanes="1" speed="8.33" />
	<edge id="261369863_2669903323_2669903336_2669903329" from="2669903329" to="2669903330" numLanes="1" speed="8.33" />
	<edge id="261369863_2669903323_2669903336_2669903330" from="2669903330" to="2669903331" numLanes="1" speed="8.33" />
	<edge id="261369863_2669903323_2669903336_2669903331" from="2669903331" to="2669903332" numLanes="1" speed="8.33" />
	<edge id="261369863_2669903323_2669903336_2669903332" from="2669903332" to="2669903333" numLanes="1" speed="8.33" />
	<edge id="261369863_2669903323_2669903336_2669903333" from="2669903333" to="2669903334" numLanes="1" speed="8.33" />
	<edge id="261369863_2669903323_2669903336_2669903334" from="2669903334" to="2669903335" numLanes="1" speed="8.33" />
	<edge id="261369863_2669903323_2669903336_2669903335" from="2669903335" to="2669903336" numLanes="1" speed="8.33" />
	<edge id="107987340_1239883923_1239883924_1239883923" from="1239883923" to="1239883940" numLanes="1" speed="8.33" />
	<edge id="107987340_1239883923_1239883924_1239883940" from="1239883940" to="1239883939" numLanes="1" speed="8.33" />
	<edge id="107987340_1239883923_1239883924_1239883939" from="1239883939" to="1239883938" numLanes="1" speed="8.33" />
	<edge id="107987340_1239883923_1239883924_1239883938" from="1239883938" to="1239897970" numLanes="1" speed="8.33" />
	<edge id="107987340_1239883923_1239883924_1239897970" from="1239897970" to="1239883911" numLanes="1" speed="8.33" />
	<edge id="107987340_1239883923_1239883924_1239883911" from="1239883911" to="1239883933" numLanes="1" speed="8.33" />
	<edge id="107987340_1239883923_1239883924_1239883933" from="1239883933" to="1239883932" numLanes="1" speed="8.33" />
	<edge id="107987340_1239883923_1239883924_1239883932" from="1239883932" to="1239883918" numLanes="1" speed="8.33" />
	<edge id="107987340_1239883923_1239883924_1239883918" from="1239883918" to="1239883931" numLanes="1" speed="8.33" />
	<edge id="107987340_1239883923_1239883924_1239883931" from="1239883931" to="1239883937" numLanes="1" speed="8.33" />
	<edge id="107987340_1239883923_1239883924_1239883937" from="1239883937" to="1239883936" numLanes="1" speed="8.33" />
	<edge id="107987340_1239883923_1239883924_1239883936" from="1239883936" to="1239883935" numLanes="1" speed="8.33" />
	<edge id="107987340_1239883923_1239883924_1239883935" from="1239883935" to="1239883934" numLanes="1" speed="8.33" />
	<edge id="107987340_1239883923_1239883924_1239883934" from="1239883934" to="1239883917" numLanes="1" speed="8.33" />
	<edge id="107987340_1239883923_1239883924_1239883917" from="1239883917" to="1239883916" numLanes="1" speed="8.33" />
	<edge id="107987340_1239883923_1239883924_1239883916" from="1239883916" to="1239883915" numLanes="1" speed="8.33" />
	<edge id="107987340_1239883923_1239883924_1239883915" from="1239883915" to="1239883925" numLanes="1" speed="8.33" />
	<edge id="107987340_1239883923_1239883924_1239883925" from="1239883925" to="1239883910" numLanes="1" speed="8.33" />