<nodes>
	<node id="6275084397" x="554136.3191" y="4601039.5977" z="0.0000" type="priority" />
	<node id="1236745775" x="553559.1901" y="4601277.0222" z="0.0000" type="priority" />
	<node id="1236745896" x="553745.1086" y="4601652.0924" z="0.0000" type="priority" />
	<node id="1236745778" x="553061.8716" y="4601890.6521" z="0.0000" type="priority" />
	<node id="2444554783" x="552940.2442" y="4601587.6182" z="0.0000" type="priority" />
	<node id="1236745764" x="553228.9986" y="4601917.1112" z="0.0000" type="priority" />
	<node id="2444554782" x="552981.4991" y="4601592.7292" z="0.0000" type="priority" />
	<node id="1236745767" x="553763.1318" y="4600661.9516" z="0.0000" type="priority" />
	<node id="2444554781" x="553427.5306" y="4601980.0021" z="0.0000" type="priority" />
	<node id="1236745888" x="553669.8629" y="4602004.3431" z="0.0000" type="priority" />
	<node id="1236745891" x="553837.7525" y="4600961.2503" z="0.0000" type="priority" />
	<node id="1236745773" x="553627.9567" y="4602001.9768" z="0.0000" type="priority" />
	<node id="6176268142" x="554142.3515" y="4601026.9748" z="0.0000" type="priority" />
	<node id="6176268143" x="554198.4013" y="4601056.6411" z="0.0000" type="priority" />
	<node id="1236745797" x="553207.3663" y="4601922.0363" z="0.0000" type="priority" />
	<node id="1236745786" x="552919.2426" y="4601589.4512" z="0.0000" type="priority" />
	<node id="1236745791" x="553766.4630" y="4601970.3789" z="0.0000" type="priority" />
	<node id="1236745794" x="553850.0821" y="4600812.3548" z="0.0000" type="priority" />
	<node id="6176268120" x="553866.0361" y="4600862.4587" z="0.0000" type="priority" />
	<node id="6176268122" x="553855.1380" y="4600866.7183" z="0.0000" type="priority" />
	<node id="6176268121" x="553860.9593" y="4600865.5406" z="0.0000" type="priority" />
	<node id="1236745738" x="553575.0328" y="4601250.2825" z="0.0000" type="priority" />
	<node id="2062534798" x="552968.8508" y="4601109.6234" z="0.0000" type="priority" />
	<node id="2062534796" x="552896.1338" y="4601036.9768" z="0.0000" type="priority" />
	<node id="1236745975" x="553794.0469" y="4601770.4357" z="0.0000" type="priority" />
	<node id="1236745732" x="553796.5051" y="4600710.2201" z="0.0000" type="priority" />
	<node id="1236745853" x="553074.0533" y="4601700.6742" z="0.0000" type="priority" />
	<node id="1236745977" x="553769.9984" y="4600677.1803" z="0.0000" type="priority" />
	<node id="3154447958" x="553056.4143" y="4601120.5380" z="0.0000" type="priority" />
	<node id="2062534794" x="553075.3079" y="4601118.6565" z="0.0000" type="priority" />
	<node id="6176268109" x="553860.3905" y="4600833.4383" z="0.0000" type="priority" />
	<node id="3154447957" x="553066.6293" y="4601014.2048" z="0.0000" type="priority" />
	<node id="1236745736" x="553344.7427" y="4601933.7226" z="0.0000" type="priority" />
	<node id="6176268117" x="553849.7094" y="4600833.2030" z="0.0000" type="priority" />
	<node id="6176268116" x="553844.8466" y="4600835.5537" z="0.0000" type="priority" />
	<node id="6176268119" x="553869.7566" y="4600857.8455" z="0.0000" type="priority" />
	<node id="6176268118" x="553855.0689" y="4600832.4659" z="0.0000" type="priority" />
	<node id="1236745980" x="553405.1664" y="4601964.4589" z="0.0000" type="priority" />
	<node id="6176268113" x="553837.4965" y="4600849.3550" z="0.0000" type="priority" />
	<node id="6176268112" x="553871.5689" y="4600846.3345" z="0.0000" type="priority" />
	<node id="1236745982" x="553546.3066" y="4601398.1127" z="0.0000" type="priority" />
	<node id="6176268115" x="553840.9576" y="4600839.2885" z="0.0000" type="priority" />
	<node id="1236745860" x="553716.4851" y="4601622.6897" z="0.0000" type="priority" />
	<node id="6176268114" x="553838.4201" y="4600844.0548" z="0.0000" type="priority" />
	<node id="6176268111" x="553869.4503" y="4600840.8117" z="0.0000" type="priority" />
	<node id="6176268110" x="553865.5643" y="4600836.3304" z="0.0000" type="priority" />
	<node id="1236745961" x="553075.3609" y="4601720.1137" z="0.0000" type="priority" />
	<node id="1236745840" x="553072.9428" y="4601744.9881" z="0.0000" type="priority" />
	<node id="1236745966" x="553125.5139" y="4601934.0113" z="0.0000" type="priority" />
	<node id="6176268106" x="553844.4636" y="4600863.3632" z="0.0000" type="priority" />
	<node id="6176268105" x="553849.2652" y="4600865.8417" z="0.0000" type="priority" />
	<node id="6176268108" x="553838.2822" y="4600854.6902" z="0.0000" type="priority" />
	<node id="6176268107" x="553840.6813" y="4600859.5156" z="0.0000" type="priority" />
	<node id="1236745971" x="553070.3041" y="4601682.1495" z="0.0000" type="priority" />
	<node id="3154447939" x="552921.2238" y="4600937.4698" z="0.0000" type="priority" />
	<node id="1236745996" x="553742.4980" y="4601990.6512" z="0.0000" type="priority" />
	<node id="3154447938" x="552910.6516" y="4600957.6213" z="0.0000" type="priority" />
	<node id="1236745875" x="553058.3648" y="4601815.4941" z="0.0000" type="priority" />
	<node id="1236745999" x="553061.8912" y="4601661.7028" z="0.0000" type="priority" />
	<node id="3154447937" x="552955.2005" y="4601087.9726" z="0.0000" type="priority" />
	<node id="1236745756" x="553696.5184" y="4602004.5197" z="0.0000" type="priority" />
	<node id="1236745759" x="553845.6037" y="4600943.9887" z="0.0000" type="priority" />
	<node id="3154447934" x="552978.8017" y="4600964.2066" z="0.0000" type="priority" />
	<node id="3154447943" x="552932.9931" y="4600939.3883" z="0.0000" type="priority" />
	<node id="3154447941" x="552922.9415" y="4601052.1069" z="0.0000" type="priority" />
	<node id="1236745883" x="553774.8231" y="4600564.8789" z="0.0000" type="priority" />
	<node id="1236745742" x="553053.7456" y="4601836.9660" z="0.0000" type="priority" />
	<node id="1236745863" x="553821.7569" y="4600743.7503" z="0.0000" type="priority" />
	<node id="1236745985" x="553055.6047" y="4601875.4840" z="0.0000" type="priority" />
	<node id="3154447946" x="552909.5027" y="4601042.4931" z="0.0000" type="priority" />
	<node id="1236745868" x="553445.4962" y="4601988.2738" z="0.0000" type="priority" />
	<node id="1236745991" x="553761.2834" y="4600592.2793" z="0.0000" type="priority" />
	<node id="3154447951" x="553017.8087" y="4601130.1351" z="0.0000" type="priority" />
	<node id="1236745870" x="553543.2947" y="4601361.3181" z="0.0000" type="priority" />
	<node id="6275084439" x="554155.2708" y="4601424.8057" z="0.0000" type="priority" />
	<node id="1236745750" x="552961.5790" y="4601589.2296" z="0.0000" type="priority" />
	<node id="6275084435" x="554088.3589" y="4601441.6786" z="0.0000" type="priority" />
	<node id="6275084436" x="554114.7841" y="4601447.2731" z="0.0000" type="priority" />
	<node id="6275084437" x="554123.9045" y="4601435.3618" z="0.0000" type="priority" />
	<node id="6275084438" x="554138.4237" y="4601424.0795" z="0.0000" type="priority" />
	<node id="6275084431" x="554012.0684" y="4601424.9293" z="0.0000" type="priority" />
	<node id="6275084432" x="554036.1327" y="4601425.1098" z="0.0000" type="priority" />
	<node id="6275084433" x="554054.7899" y="4601424.6503" z="0.0000" type="priority" />
	<node id="6275084434" x="554068.0183" y="4601425.3492" z="0.0000" type="priority" />
	<node id="6177088913" x="553372.9964" y="4600494.1414" z="0.0000" type="priority" />
	<node id="6504649758" x="553033.4574" y="4600849.8068" z="0.0000" type="priority" />
	<node id="6177088914" x="553415.0320" y="4600497.1287" z="0.0000" type="priority" />
	<node id="6504649759" x="553041.7093" y="4600868.4757" z="0.0000" type="priority" />
	<node id="6177088911" x="553256.8917" y="4600465.6473" z="0.0000" type="priority" />
	<node id="6504649756" x="553038.5630" y="4600840.4848" z="0.0000" type="priority" />
	<node id="6177088912" x="553311.3723" y="4600478.5298" z="0.0000" type="priority" />
	<node id="6504649757" x="553032.4179" y="4600839.2183" z="0.0000" type="priority" />
	<node id="6177088919" x="553533.2750" y="4600595.7327" z="0.0000" type="priority" />
	<node id="6177088917" x="553487.2230" y="4600535.1028" z="0.0000" type="priority" />
	<node id="6177088918" x="553516.4744" y="4600572.7585" z="0.0000" type="priority" />
	<node id="6177088915" x="553436.5058" y="4600497.2880" z="0.0000" type="priority" />
	<node id="6177088916" x="553452.5364" y="4600507.2106" z="0.0000" type="priority" />
	<node id="6813314519" x="552976.8045" y="4600999.9093" z="0.0000" type="priority" />
	<node id="6813314518" x="552966.4085" y="4600993.8374" z="0.0000" type="priority" />
	<node id="6813314517" x="552952.8704" y="4600985.2332" z="0.0000" type="priority" />
	<node id="6813314516" x="552947.8204" y="4600983.6195" z="0.0000" type="priority" />
	<node id="6504649761" x="553074.4369" y="4600889.4456" z="0.0000" type="priority" />
	<node id="6813314515" x="552940.2376" y="4600981.6762" z="0.0000" type="priority" />
	<node id="6504649762" x="553084.3436" y="4600911.0135" z="0.0000" type="priority" />
	<node id="6813314514" x="552933.6139" y="4600979.7290" z="0.0000" type="priority" />
	<node id="6813314513" x="552927.9555" y="4600974.6468" z="0.0000" type="priority" />
	<node id="6504649760" x="553056.0667" y="4600877.9411" z="0.0000" type="priority" />
	<node id="6813314512" x="552920.1059" y="4600967.0281" z="0.0000" type="priority" />
	<node id="6504649765" x="553068.9867" y="4600961.3732" z="0.0000" type="priority" />
	<node id="6504649766" x="553065.7437" y="4600975.9494" z="0.0000" type="priority" />
	<node id="6504649763" x="553085.8324" y="4600936.4275" z="0.0000" type="priority" />
	<node id="6504649764" x="553081.0153" y="4600953.0016" z="0.0000" type="priority" />
	<node id="6504649769" x="553037.9216" y="4601010.2517" z="0.0000" type="priority" />
	<node id="6504649767" x="553064.4408" y="4600986.4097" z="0.0000" type="priority" />
	<node id="6504649768" x="553052.7187" y="4600998.4697" z="0.0000" type="priority" />
	<node id="3154447933" x="553140.9326" y="4600982.4438" z="0.0000" type="priority" />
	<node id="3154447932" x="552978.5215" y="4601120.1866" z="0.0000" type="priority" />
	<node id="6504649736" x="553296.8733" y="4600845.4006" z="0.0000" type="priority" />
	<node id="6504649737" x="553286.8755" y="4600852.0104" z="0.0000" type="priority" />
	<node id="6504649734" x="553318.4632" y="4600828.6176" z="0.0000" type="priority" />
	<node id="6504649735" x="553307.4646" y="4600835.2311" z="0.0000" type="priority" />
	<node id="6504649738" x="553269.4098" y="4600854.6680" z="0.0000" type="priority" />
	<node id="6504649739" x="553255.8534" y="4600857.5766" z="0.0000" type="priority" />
	<node id="1236746006" x="553756.8828" y="4600636.6019" z="0.0000" type="priority" />
	<node id="1236746009" x="553376.3326" y="4601945.4148" z="0.0000" type="priority" />
	<node id="1236746011" x="553589.3817" y="4601230.4377" z="0.0000" type="priority" />
	<node id="1236746014" x="553078.7069" y="4601912.0823" z="0.0000" type="priority" />
	<node id="6504649740" x="553241.2485" y="4600865.8290" z="0.0000" type="priority" />
	<node id="6504649743" x="553192.3383" y="4600840.9528" z="0.0000" type="priority" />
	<node id="6504649744" x="553184.8023" y="4600831.5375" z="0.0000" type="priority" />
	<node id="6504649741" x="553218.7316" y="4600855.7478" z="0.0000" type="priority" />
	<node id="6504649742" x="553206.3702" y="4600849.3057" z="0.0000" type="priority" />
	<node id="6504649747" x="553151.6261" y="4600795.6418" z="0.0000" type="priority" />
	<node id="6504649748" x="553144.5131" y="4600804.6047" z="0.0000" type="priority" />
	<node id="6504649745" x="553176.1834" y="4600817.4289" z="0.0000" type="priority" />
	<node id="6504649746" x="553161.0045" y="4600798.3756" z="0.0000" type="priority" />
	<node id="6504649749" x="553135.1011" y="4600822.2552" z="0.0000" type="priority" />
	<node id="354969859" x="553287.3424" y="4600349.2718" z="0.0000" type="priority" />
	<node id="1236746003" x="553761.8535" y="4601670.9144" z="0.0000" type="priority" />
	<node id="6504649750" x="553122.2366" y="4600837.6486" z="0.0000" type="priority" />
	<node id="6504649751" x="553108.7699" y="4600844.2331" z="0.0000" type="priority" />
	<node id="6504649754" x="553058.6817" y="4600842.1985" z="0.0000" type="priority" />
	<node id="6813314522" x="552985.2252" y="4601016.0369" z="0.0000" type="priority" />
	<node id="6504649755" x="553048.4794" y="4600844.8990" z="0.0000" type="priority" />
	<node id="6813314521" x="552983.6733" y="4601011.6177" z="0.0000" type="priority" />
	<node id="6504649752" x="553088.7357" y="4600845.7619" z="0.0000" type="priority" />
	<node id="6813314520" x="552980.5685" y="4601004.0339" z="0.0000" type="priority" />
	<node id="6504649753" x="553079.2539" y="4600842.3501" z="0.0000" type="priority" />
	<node id="6504649714" x="553571.4367" y="4600831.2832" z="0.0000" type="priority" />
	<node id="6504649715" x="553559.2012" y="4600837.0988" z="0.0000" type="priority" />
	<node id="6504649712" x="553593.9975" y="4600805.1598" z="0.0000" type="priority" />
	<node id="6504649713" x="553593.4702" y="4600816.6250" z="0.0000" type="priority" />
	<node id="6504649718" x="553526.8306" y="4600859.1413" z="0.0000" type="priority" />
	<node id="6504649719" x="553516.8209" y="4600866.1949" z="0.0000" type="priority" />
	<node id="6504649716" x="553542.8107" y="4600845.4372" z="0.0000" type="priority" />
	<node id="6504649717" x="553536.8378" y="4600851.2995" z="0.0000" type="priority" />
	<node id="1239897970" x="553207.2399" y="4600475.3061" z="0.0000" type="priority" />
	<node id="6504649721" x="553488.6155" y="4600884.3715" z="0.0000" type="priority" />
	<node id="6504649722" x="553480.4037" y="4600890.7723" z="0.0000" type="priority" />
	<node id="6504649720" x="553506.9246" y="4600873.7045" z="0.0000" type="priority" />
	<node id="6504649725" x="553448.8005" y="4600869.0317" z="0.0000" type="priority" />
	<node id="6504649726" x="553437.9945" y="4600863.1559" z="0.0000" type="priority" />
	<node id="6504649723" x="553472.3004" y="4600882.5738" z="0.0000" type="priority" />
	<node id="6504649724" x="553465.0760" y="4600876.1694" z="0.0000" type="priority" />
	<node id="6504649729" x="553398.7652" y="4600845.2671" z="0.0000" type="priority" />
	<node id="6504649727" x="553423.8379" y="4600857.0332" z="0.0000" type="priority" />
	<node id="6504649728" x="553411.0429" y="4600848.3670" z="0.0000" type="priority" />
	<node id="6504649732" x="553336.4684" y="4600815.0502" z="0.0000" type="priority" />
	<node id="6504649733" x="553323.1389" y="4600815.4622" z="0.0000" type="priority" />
	<node id="6504649730" x="553364.1031" y="4600828.8557" z="0.0000" type="priority" />
	<node id="6504649731" x="553348.8496" y="4600819.9383" z="0.0000" type="priority" />
	<node id="2668327821" x="554214.0158" y="4601436.0952" z="0.0000" type="priority" />
	<node id="3154448077" x="553045.7406" y="4601016.3381" z="0.0000" type="priority" />
	<node id="3154448078" x="553113.4113" y="4600993.9874" z="0.0000" type="priority" />
	<node id="2062536795" x="553144.6018" y="4601003.9213" z="0.0000" type="priority" />
	<node id="2062536792" x="553130.8724" y="4601046.1547" z="0.0000" type="priority" />
	<node id="3154448083" x="553087.0029" y="4601111.3705" z="0.0000" type="priority" />
	<node id="6504649707" x="553529.7022" y="4600773.4829" z="0.0000" type="priority" />
	<node id="3154448087" x="552937.8057" y="4601061.7978" z="0.0000" type="priority" />
	<node id="6504649708" x="553549.6497" y="4600783.6570" z="0.0000" type="priority" />
	<node id="3154448088" x="552899.0362" y="4601005.1444" z="0.0000" type="priority" />
	<node id="2062536789" x="553153.2108" y="4600988.8296" z="0.0000" type="priority" />
	<node id="6504649706" x="553522.9132" y="4600769.0802" z="0.0000" type="priority" />
	<node id="6504649709" x="553566.0444" y="4600789.3525" z="0.0000" type="priority" />
	<node id="2062536786" x="553105.9296" y="4601091.4363" z="0.0000" type="priority" />
	<node id="6275084398" x="554156.3058" y="4601034.3632" z="0.0000" type="priority" />
	<node id="6504649710" x="553580.7772" y="4600793.1371" z="0.0000" type="priority" />
	<node id="6275084399" x="554145.5588" y="4601036.2919" z="0.0000" type="priority" />
	<node id="6504649711" x="553588.2383" y="4600797.9779" z="0.0000" type="priority" />
	<node id="2062531521" x="552862.0320" y="4601775.7011" z="0.0000" type="priority" />
	<node id="1239883931" x="553250.6319" y="4600528.3536" z="0.0000" type="priority" />
	<node id="1239883932" x="553229.7393" y="4600505.9826" z="0.0000" type="priority" />
	<node id="2062531524" x="552813.2885" y="4601815.1799" z="0.0000" type="priority" />
	<node id="1239883933" x="553218.0813" y="4600494.5495" z="0.0000" type="priority" />
	<node id="2062531525" x="552964.2238" y="4601710.3243" z="0.0000" type="priority" />
	<node id="1239883934" x="553297.6103" y="4600579.0185" z="0.0000" type="priority" />
	<node id="1239883935" x="553282.0018" y="4600571.7751" z="0.0000" type="priority" />
	<node id="1937769548" x="553833.0827" y="4600458.0174" z="0.0000" type="priority" />
	<node id="2062531523" x="552980.5356" y="4601678.3352" z="0.0000" type="priority" />
	<node id="2062539248" x="553650.4596" y="4600615.4348" z="0.0000" type="priority" />
	<node id="2669903369" x="553903.8504" y="4600850.8505" z="0.0000" type="priority" />
	<node id="2062539246" x="553655.5108" y="4600612.4192" z="0.0000" type="priority" />
	<node id="2062539244" x="553713.7909" y="4600562.9025" z="0.0000" type="priority" />
	<node id="2669903373" x="553990.5364" y="4600913.4531" z="0.0000" type="priority" />
	<node id="2062539242" x="553309.8953" y="4600852.7248" z="0.0000" type="priority" />
	<node id="1236746074" x="553793.9520" y="4601807.6958" z="0.0000" type="priority" />
	<node id="2669903371" x="553925.2363" y="4600858.1719" z="0.0000" type="priority" />
	<node id="2062539240" x="553221.0250" y="4600952.7914" z="0.0000" type="priority" />
	<node id="1236746076" x="553782.0573" y="4600695.0680" z="0.0000" type="priority" />
	<node id="2669903377" x="554048.7977" y="4600986.4466" z="0.0000" type="priority" />
	<node id="1236746078" x="553293.9717" y="4601921.3335" z="0.0000" type="priority" />
	<node id="2669903375" x="554026.4961" y="4600947.8637" z="0.0000" type="priority" />
	<node id="1239883936" x="553267.3271" y="4600560.0753" z="0.0000" type="priority" />
	<node id="1239883937" x="553255.7860" y="4600547.5105" z="0.0000" type="priority" />
	<node id="1239883938" x="553205.8159" y="4600468.2565" z="0.0000" type="priority" />
	<node id="1239883939" x="553208.3239" y="4600449.3671" z="0.0000" type="priority" />
	<node id="1236746071" x="553027.8922" y="4601617.9741" z="0.0000" type="priority" />
	<node id="2062531993" x="552957.7412" y="4600949.9846" z="0.0000" type="priority" />
	<node id="1239883940" x="553205.8791" y="4600434.8600" z="0.0000" type="priority" />
	<node id="3154448063" x="552990.9515" y="4601126.3401" z="0.0000" type="priority" />
	<node id="2062539238" x="553354.8391" y="4600703.7483" z="0.0000" type="priority" />
	<node id="2062539236" x="553683.9957" y="4600598.3423" z="0.0000" type="priority" />
	<node id="2062539234" x="553335.6248" y="4600780.3146" z="0.0000" type="priority" />
	<node id="2062539232" x="553566.3126" y="4600601.9183" z="0.0000" type="priority" />
	<node id="2062539230" x="553407.3217" y="4600624.8083" z="0.0000" type="priority" />
	<node id="2669903384" x="554066.9616" y="4601005.2022" z="0.0000" type="priority" />
	<node id="1236746064" x="553657.2008" y="4601162.4166" z="0.0000" type="priority" />
	<node id="2669903382" x="554061.5831" y="4601004.0516" z="0.0000" type="priority" />
	<node id="1236746066" x="553109.9687" y="4601929.8885" z="0.0000" type="priority" />
	<node id="2669903386" x="554107.0478" y="4601008.6120" z="0.0000" type="priority" />
	<node id="2669903380" x="554056.4842" y="4601000.0829" z="0.0000" type="priority" />
	<node id="1236746061" x="553065.2431" y="4601783.9242" z="0.0000" type="priority" />
	<node id="1239883910" x="553371.4817" y="4600632.1591" z="0.0000" type="priority" />
	<node id="3154449000" x="553238.5011" y="4600938.5426" z="0.0000" type="priority" />
	<node id="1239883911" x="553211.5273" y="4600484.2422" z="0.0000" type="priority" />
	<node id="1239883912" x="553263.3000" y="4600354.6676" z="0.0000" type="priority" />
	<node id="2062539228" x="553764.2001" y="4600518.8343" z="0.0000" type="priority" />
	<node id="2062539226" x="553462.0903" y="4600599.8116" z="0.0000" type="priority" />
	<node id="2062539224" x="553511.8051" y="4600591.7094" z="0.0000" type="priority" />
	<node id="2669903395" x="553656.0157" y="4600619.6509" z="0.0000" type="priority" />
	<node id="1236746097" x="553660.5273" y="4601569.8342" z="0.0000" type="priority" />
	<node id="2669903393" x="553642.3476" y="4600617.3285" z="0.0000" type="priority" />
	<node id="2669903398" x="553661.0090" y="4600623.3075" z="0.0000" type="priority" />
	<node id="1239883915" x="553353.1294" y="4600605.8207" z="0.0000" type="priority" />
	<node id="1239883916" x="553335.5815" y="4600590.2136" z="0.0000" type="priority" />
	<node id="2062531977" x="552892.0964" y="4601031.4735" z="0.0000" type="priority" />
	<node id="1239883917" x="553318.7321" y="4600581.6286" z="0.0000" type="priority" />
	<node id="1239883918" x="553241.8117" y="4600514.3656" z="0.0000" type="priority" />
	<node id="2669903391" x="553670.6545" y="4600603.6277" z="0.0000" type="priority" />
	<node id="1239883919" x="553237.2486" y="4600367.8427" z="0.0000" type="priority" />
	<node id="1236746092" x="553719.5671" y="4602000.8723" z="0.0000" type="priority" />
	<node id="1236746094" x="553055.0742" y="4601648.7401" z="0.0000" type="priority" />
	<node id="1239883920" x="553250.7379" y="4600359.4710" z="0.0000" type="priority" />
	<node id="1239883921" x="553225.0841" y="4600379.7881" z="0.0000" type="priority" />
	<node id="1239883922" x="553213.2990" y="4600400.2077" z="0.0000" type="priority" />
	<node id="1239883923" x="553202.8699" y="4600418.8499" z="0.0000" type="priority" />
	<node id="1239883924" x="553373.6374" y="4600642.8670" z="0.0000" type="priority" />
	<node id="1236746088" x="553800.6040" y="4600539.9571" z="0.0000" type="priority" />
	<node id="1239883925" x="553362.6031" y="4600622.7337" z="0.0000" type="priority" />
	<node id="1236746080" x="553545.2620" y="4601322.1623" z="0.0000" type="priority" />
	<node id="2062531967" x="553154.6125" y="4600980.8238" z="0.0000" type="priority" />
	<node id="1236746083" x="553051.8280" y="4601853.9058" z="0.0000" type="priority" />
	<node id="2669903326" x="553838.2396" y="4600701.9718" z="0.0000" type="priority" />
	<node id="2669903447" x="553796.7886" y="4600726.9652" z="0.0000" type="priority" />
	<node id="2669903327" x="553845.7532" y="4600705.3699" z="0.0000" type="priority" />
	<node id="2669903324" x="553820.0313" y="4600710.1849" z="0.0000" type="priority" />
	<node id="2669903445" x="553793.1652" y="4600725.2727" z="0.0000" type="priority" />
	<node id="2669903325" x="553828.4516" y="4600703.8527" z="0.0000" type="priority" />
	<node id="1236746029" x="553797.8906" y="4601024.8930" z="0.0000" type="priority" />
	<node id="2669903328" x="553871.3691" y="4600715.8536" z="0.0000" type="priority" />
	<node id="2669903329" x="553884.1863" y="4600719.2914" z="0.0000" type="priority" />
	<node id="2669903330" x="553895.3399" y="4600721.0403" z="0.0000" type="priority" />
	<node id="1236746032" x="553250.4109" y="4601914.8602" z="0.0000" type="priority" />
	<node id="2669903333" x="553911.7222" y="4600733.9533" z="0.0000" type="priority" />
	<node id="1236746035" x="553759.0801" y="4600651.7069" z="0.0000" type="priority" />
	<node id="2669903334" x="553911.9370" y="4600742.0266" z="0.0000" type="priority" />
	<node id="2669903331" x="553905.1071" y="4600721.9461" z="0.0000" type="priority" />
	<node id="2669903332" x="553908.9869" y="4600726.1498" z="0.0000" type="priority" />
	<node id="2669903337" x="553872.1167" y="4600802.0942" z="0.0000" type="priority" />
	<node id="2669903338" x="553877.2013" y="4600794.6267" z="0.0000" type="priority" />
	<node id="2669903335" x="553910.7258" y="4600754.5414" z="0.0000" type="priority" />
	<node id="2669903336" x="553904.7386" y="4600771.1840" z="0.0000" type="priority" />
	<node id="2669903339" x="553885.3818" y="4600783.5519" z="0.0000" type="priority" />
	<node id="2669903340" x="553894.6588" y="4600775.2832" z="0.0000" type="priority" />
	<node id="2669903341" x="553908.6309" y="4600773.7112" z="0.0000" type="priority" />
	<node id="1236746021" x="552997.0519" y="4601598.1951" z="0.0000" type="priority" />
	<node id="2669903344" x="553929.0177" y="4600773.0311" z="0.0000" type="priority" />
	<node id="2669903345" x="553942.1830" y="4600767.8448" z="0.0000" type="priority" />
	<node id="2669903342" x="553914.7476" y="4600776.5438" z="0.0000" type="priority" />
	<node id="1236746026" x="553790.3675" y="4601919.1628" z="0.0000" type="priority" />
	<node id="2669903343" x="553920.3347" y="4600776.5856" z="0.0000" type="priority" />
	<node id="2062531941" x="553053.2241" y="4601019.2910" z="0.0000" type="priority" />
	<node id="2669903349" x="553980.2174" y="4600759.2254" z="0.0000" type="priority" />
	<node id="2669903346" x="553955.3316" y="4600763.7687" z="0.0000" type="priority" />
	<node id="2669903347" x="553971.2695" y="4600761.3900" z="0.0000" type="priority" />
	<node id="1236746053" x="553842.2482" y="4600784.8947" z="0.0000" type="priority" />
	<node id="2669903352" x="553996.4890" y="4600749.0551" z="0.0000" type="priority" />
	<node id="1236746055" x="553311.1899" y="4601924.7251" z="0.0000" type="priority" />
	<node id="2669903350" x="553988.6252" y="4600755.6800" z="0.0000" type="priority" />
	<node id="1236746057" x="553609.4971" y="4601519.1809" z="0.0000" type="priority" />
	<node id="2669903356" x="554004.1234" y="4600736.3220" z="0.0000" type="priority" />
	<node id="2669903354" x="554000.7211" y="4600744.0795" z="0.0000" type="priority" />
	<node id="1236746051" x="553785.1465" y="4601938.3205" z="0.0000" type="priority" />
	<node id="2062531930" x="552915.3397" y="4600943.7996" z="0.0000" type="priority" />
	<node id="2669903359" x="553839.3333" y="4600774.3253" z="0.0000" type="priority" />
	<node id="1236746038" x="553468.6078" y="4601994.0967" z="0.0000" type="priority" />
	<node id="2669903357" x="554008.3326" y="4600722.1754" z="0.0000" type="priority" />
	<node id="1236746041" x="553701.9862" y="4601118.1730" z="0.0000" type="priority" />
	<node id="1236746043" x="553068.3687" y="4601900.6147" z="0.0000" type="priority" />
	<node id="2669903367" x="553891.5626" y="4600849.1376" z="0.0000" type="priority" />
	<node id="2669903365" x="553871.6748" y="4600852.2530" z="0.0000" type="priority" />
	<node id="1236746047" x="553037.3393" y="4601625.9599" z="0.0000" type="priority" />
	<node id="1236745937" x="553748.6081" y="4601073.7546" z="0.0000" type="priority" />
	<node id="6275084430" x="553989.2857" y="4601413.9665" z="0.0000" type="priority" />
	<node id="2669903404" x="553691.3351" y="4600638.5555" z="0.0000" type="priority" />
	<node id="1236745931" x="553571.7065" y="4601464.2408" z="0.0000" type="priority" />
	<node id="1236745810" x="553621.3106" y="4601196.9897" z="0.0000" type="priority" />
	<node id="2669903402" x="553686.3066" y="4600638.5181" z="0.0000" type="priority" />
	<node id="2669903408" x="553700.2913" y="4600636.4018" z="0.0000" type="priority" />
	<node id="1236745934" x="553526.8599" y="4601997.1609" z="0.0000" type="priority" />
	<node id="1236745813" x="553167.8052" y="4601930.6041" z="0.0000" type="priority" />
	<node id="2669903406" x="553695.8194" y="4600636.6460" z="0.0000" type="priority" />
	<node id="2669903410" x="553702.7911" y="4600637.8082" z="0.0000" type="priority" />
	<node id="6275084428" x="553943.3981" y="4601354.8780" z="0.0000" type="priority" />
	<node id="6275084429" x="553958.8612" y="4601378.9758" z="0.0000" type="priority" />
	<node id="6275084424" x="553923.2336" y="4601316.0672" z="0.0000" type="priority" />
	<node id="6275084425" x="553922.3717" y="4601320.9238" z="0.0000" type="priority" />
	<node id="6275084426" x="553917.9994" y="4601331.3054" z="0.0000" type="priority" />
	<node id="6275084427" x="553922.5259" y="4601340.4102" z="0.0000" type="priority" />
	<node id="6275084420" x="553894.5111" y="4601274.1836" z="0.0000" type="priority" />
	<node id="6275084421" x="553908.4618" y="4601299.8465" z="0.0000" type="priority" />
	<node id="6275084422" x="553913.6784" y="4601305.8811" z="0.0000" type="priority" />
	<node id="6275084423" x="553920.1759" y="4601312.3693" z="0.0000" type="priority" />
	<node id="1236745925" x="553818.2797" y="4600999.2648" z="0.0000" type="priority" />
	<node id="1236745804" x="553069.1438" y="4601763.7793" z="0.0000" type="priority" />
	<node id="1236745928" x="553184.2525" y="4601926.6064" z="0.0000" type="priority" />
	<node id="2669903415" x="553711.0516" y="4600652.8918" z="0.0000" type="priority" />
	<node id="2669903412" x="553706.9400" y="4600642.8465" z="0.0000" type="priority" />
	<node id="1236745922" x="553792.4238" y="4601858.2241" z="0.0000" type="priority" />
	<node id="1236745800" x="553555.4328" y="4601426.7813" z="0.0000" type="priority" />
	<node id="2669903419" x="553725.5245" y="4600660.2276" z="0.0000" type="priority" />
	<node id="2669903417" x="553718.2923" y="4600655.9991" z="0.0000" type="priority" />
	<node id="2669903421" x="553733.0154" y="4600666.6898" z="0.0000" type="priority" />
	<node id="6275084417" x="553911.5756" y="4601245.9216" z="0.0000" type="priority" />
	<node id="6275084418" x="553892.3836" y="4601257.6135" z="0.0000" type="priority" />
	<node id="6275084419" x="553891.3429" y="4601266.2991" z="0.0000" type="priority" />
	<node id="6275084413" x="553915.2103" y="4601202.6370" z="0.0000" type="priority" />
	<node id="6275084414" x="553920.7753" y="4601212.2715" z="0.0000" type="priority" />