<connections>
	<connection from="252691653_2587274395_2587186081_2587274395" to="252682549_2587186081_2587186080_2587186081" />
	<connection from="252691653_2587274395_2587186081_2587274395" to="252691653_2587186081_2587274395_2587186081" />
	<connection from="252887038_1027147118_1027147040_1027147118" to="88429293_1027147040_1027146493_1027147040" />
	<connection from="252887038_1027147118_1027147040_1027147118" to="88429293_1027147040_1027146912_1027147040" />
	<connection from="252887038_1027147118_1027147040_1027147118" to="252887038_1027147040_1027147118_1027147040" />
	<connection from="252887038_1027147118_1027147040_1027147118" to="252887038_1027147040_2589278649_1027147040" />
	<connection from="88429324_1027146585_1027147012_1027146585" to="88429324_1027146585_1027147012_1027147102" />
	<connection from="88429324_1027146585_1027147012_1027147102" to="252671895_1027147012_2589267284_1027147012" />
	<connection from="88429324_1027146585_1027147012_1027147102" to="88429332_1027147012_1027146536_1027147012" />
	<connection from="88429324_1027146585_1027147012_1027147102" to="88429324_1027147012_1027146585_1027147012" />
	<connection from="88429324_1027146585_1027147012_1027147102" to="88429332_1027147012_1027146169_1027147012" />
	<connection from="252691654_2587274405_2587274395_2587274405" to="252691654_2587274405_2587274395_2587274403" />
	<connection from="252691654_2587274405_2587274395_2587274403" to="252691653_2587274395_2587186081_2587274395" />
	<connection from="252691654_2587274405_2587274395_2587274403" to="252691654_2587274395_2587274405_2587274395" />
	<connection from="252691654_2587274405_2587274395_2587274403" to="252691653_2587274395_2587274401_2587274395" />
	<connection from="252912505_2589267286_1027146475_2589267286" to="252912505_2589267286_1027146475_1027146219" />
	<connection from="252912505_2589267286_1027146475_1027146219" to="252912505_1027146475_1027146208_1027146475" />
	<connection from="252912505_2589267286_1027146475_1027146219" to="252912505_1027146475_2589267286_1027146475" />
	<connection from="252887038_1027147126_2589278649_1027147126" to="252887038_2589278649_1027147040_2589278649" />
	<connection from="252887038_1027147126_2589278649_1027147126" to="252914455_2589278649_2589278650_2589278649" />
	<connection from="252887038_1027147126_2589278649_1027147126" to="252887038_2589278649_1027147126_2589278649" />
	<connection from="599972850_5706729380_5706729361_5706729380" to="599972848_5706729361_372744311_5706729361" />
	<connection from="599972850_5706729380_5706729361_5706729380" to="599972850_5706729361_5706729364_5706729361" />
	<connection from="88429331_1027146702_2589278650_1027146702" to="88429331_2589278650_1027146912_2589278650" />
	<connection from="88429331_1027146702_2589278650_1027146702" to="88429331_2589278650_1027146702_2589278650" />
	<connection from="88429331_1027146702_2589278650_1027146702" to="252914455_2589278650_2589278649_2589278650" />
	<connection from="88429331_1027146912_1027146622_1027146912" to="88429331_1027146622_1027146483_1027146622" />
	<connection from="88429331_1027146912_1027146622_1027146912" to="88429331_1027146622_1027146912_1027146622" />
	<connection from="88429331_1027146912_1027146622_1027146912" to="88429333_1027146622_1027147118_1027146622" />
	<connection from="252682550_2587129236_2587186087_2587129236" to="252682550_2587129236_2587186087_2587186082" />
	<connection from="252682550_2587129236_2587186087_2587186082" to="252682550_2587129236_2587186087_2587186083" />
	<connection from="252682550_2587129236_2587186087_2587186083" to="252682550_2587129236_2587186087_2587186084" />
	<connection from="252682550_2587129236_2587186087_2587186084" to="252682550_2587129236_2587186087_2587186085" />
	<connection from="252682550_2587129236_2587186087_2587186085" to="252682550_2587129236_2587186087_2587186086" />
	<connection from="252682550_2587129236_2587186087_2587186086" to="252682550_2587186087_2587129236_2587186087" />
	<connection from="252925970_2589357416_2589357418_2589357416" to="252925970_2589357418_2589357416_2589357418" />
	<connection from="252925970_2589357416_2589357418_2589357416" to="253229337_2589357418_1027146416_2589357418" />
	<connection from="252925970_2589357416_2589357418_2589357416" to="253229337_2589357418_2591874289_2589357418" />
	<connection from="252682550_2587186087_2587129236_2587186087" to="252682550_2587186087_2587129236_2587186086" />
	<connection from="252682550_2587186087_2587129236_2587186086" to="252682550_2587186087_2587129236_2587186085" />
	<connection from="252682550_2587186087_2587129236_2587186085" to="252682550_2587186087_2587129236_2587186084" />
	<connection from="252682550_2587186087_2587129236_2587186084" to="252682550_2587186087_2587129236_2587186083" />
	<connection from="252682550_2587186087_2587129236_2587186083" to="252682550_2587186087_2587129236_2587186082" />
	<connection from="252682550_2587186087_2587129236_2587186082" to="252674481_2587129236_1027146900_2587129236" />
	<connection from="252682550_2587186087_2587129236_2587186082" to="252682550_2587129236_2587186087_2587129236" />
	<connection from="252682550_2587186087_2587129236_2587186082" to="252674479_2587129236_2587129234_2587129236" />
	<connection from="253082508_2590593175_2590593173_2590593175" to="253082508_2590593173_2590593175_2590593173" />
	<connection from="253082508_2590593175_2590593173_2590593175" to="252682555_2590593173_2587186105_2590593173" />
	<connection from="253082508_2590593175_2590593173_2590593175" to="252682555_2590593173_2587186106_2590593173" />
	<connection from="88429332_1027147012_1027146536_1027147012" to="88429332_1027147012_1027146536_1027146697" />
	<connection from="88429332_1027147012_1027146536_1027146697" to="88429332_1027147012_1027146536_2589444294" />
	<connection from="88429332_1027147012_1027146536_2589444294" to="88429331_1027146536_2587186080_1027146536" />
	<connection from="88429332_1027147012_1027146536_2589444294" to="88429332_1027146536_1027147012_1027146536" />
	<connection from="88429332_1027147012_1027146536_2589444294" to="88429332_1027146536_2587186088_1027146536" />
	<connection from="88429332_1027147012_1027146536_2589444294" to="88429331_1027146536_2589278651_1027146536" />
	<connection from="88429327_1027147058_2589347381_1027147058" to="88429327_1027147058_2589347381_1027146334" />
	<connection from="88429327_1027147058_2589347381_1027146334" to="252924814_2589347381_1027146184_2589347381" />
	<connection from="88429327_1027147058_2589347381_1027146334" to="88429327_2589347381_1027147058_2589347381" />
	<connection from="252671892_2587104912_1027147058_2587104912" to="252671892_2587104912_1027147058_2587104914" />
	<connection from="252671892_2587104912_1027147058_2587104914" to="88429327_1027147058_2589347381_1027147058" />
	<connection from="252671892_2587104912_1027147058_2587104914" to="88429327_1027147058_2589524836_1027147058" />
	<connection from="88429327_1027147058_2589524836_1027147058" to="88429327_2589524836_2589278648_2589524836" />
	<connection from="88429327_1027147058_2589524836_1027147058" to="252948126_2589524836_2587125069_2589524836" />
	<connection from="88429327_1027147058_2589524836_1027147058" to="88429327_2589524836_1027147058_2589524836" />
	<connection from="252925970_2589357416_2589357420_2589357416" to="252925970_2589357420_2589357416_2589357420" />
	<connection from="88429331_1027146622_1027146483_1027146622" to="88429331_1027146483_2587186106_1027146483" />
	<connection from="88429331_1027146622_1027146483_1027146622" to="88429328_1027146483_1027146305_1027146483" />
	<connection from="88429331_1027146622_1027146483_1027146622" to="88429331_1027146483_1027146622_1027146483" />
	<connection from="252914455_2589278650_2589278649_2589278650" to="252887038_2589278649_1027147040_2589278649" />
	<connection from="252914455_2589278650_2589278649_2589278650" to="252914455_2589278649_2589278650_2589278649" />
	<connection from="252914455_2589278650_2589278649_2589278650" to="252887038_2589278649_1027147126_2589278649" />
	<connection from="88429293_1027147040_1027146493_1027147040" to="88429293_1027147040_1027146493_2590631155" />
	<connection from="88429293_1027147040_1027146493_2590631155" to="88429293_1027146493_6176399881_1027146493" />
	<connection from="88429293_1027147040_1027146493_2590631155" to="252891213_1027146493_2587774390_1027146493" />
	<connection from="88429293_1027147040_1027146493_2590631155" to="88429293_1027146493_1027147040_1027146493" />
	<connection from="88429293_1027147040_1027146493_2590631155" to="252891213_1027146493_2589088106_1027146493" />
	<connection from="318476141_1027146664_5706729387_1027146664" to="318476141_1027146664_5706729387_5706729382" />
	<connection from="318476141_1027146664_5706729387_5706729382" to="318476141_1027146664_5706729387_370927432" />
	<connection from="318476141_1027146664_5706729387_370927432" to="318476141_5706729387_5706729364_5706729387" />
	<connection from="318476141_1027146664_5706729387_370927432" to="599972846_5706729387_5706729378_5706729387" />
	<connection from="318476141_1027146664_5706729387_370927432" to="318476141_5706729387_1027146664_5706729387" />
	<connection from="252682554_2587186099_2587274407_2587186099" to="252682554_2587186099_2587274407_2589490399" />
	<connection from="252682554_2587186099_2587274407_2589490399" to="252682554_2587274407_2587186105_2587274407" />
	<connection from="252682554_2587186099_2587274407_2589490399" to="252691656_2587274407_1027147099_2587274407" />
	<connection from="252682554_2587186099_2587274407_2589490399" to="252682554_2587274407_2587186099_2587274407" />
	<connection from="253229337_2589357418_1027146416_2589357418" to="88429331_1027146416_1027146702_1027146416" />
	<connection from="253229337_2589357418_1027146416_2589357418" to="88429331_1027146416_2587186080_1027146416" />
	<connection from="253229337_2589357418_1027146416_2589357418" to="253229337_1027146416_2589357418_1027146416" />
	<connection from="252912505_1027146169_1027147103_1027146169" to="252912505_1027147103_1027146169_1027147103" />
	<connection from="252912505_1027146169_1027147103_1027146169" to="252912505_1027147103_2589088106_1027147103" />
	<connection from="252912505_1027146169_1027147103_1027146169" to="88429339_1027147103_2587125069_1027147103" />
	<connection from="252887279_2591874289_1027147126_2591874289" to="88429329_1027147126_1027146702_1027147126" />
	<connection from="252887279_2591874289_1027147126_2591874289" to="252887279_1027147126_2591874289_1027147126" />
	<connection from="252887279_2591874289_1027147126_2591874289" to="252887038_1027147126_2589278649_1027147126" />
	<connection from="252887279_2591874289_1027147126_2591874289" to="88429329_1027147126_1027146585_1027147126" />
	<connection from="252744540_371585803_2588082086_371585803" to="252744540_371585803_2588082086_371585796" />
	<connection from="252744540_371585803_2588082086_371585796" to="252744540_371585803_2588082086_371585789" />
	<connection from="252744540_371585803_2588082086_371585789" to="252744540_371585803_2588082086_5694896384" />
	<connection from="252744540_371585803_2588082086_5694896384" to="252744540_371585803_2588082086_371585783" />
	<connection from="252744540_371585803_2588082086_371585783" to="252744540_371585803_2588082086_4944374667" />
	<connection from="252744540_371585803_2588082086_4944374667" to="252744540_371585803_2588082086_4944374666" />
	<connection from="252744540_371585803_2588082086_4944374666" to="252744540_371585803_2588082086_371585775" />
	<connection from="252744540_371585803_2588082086_371585775" to="252744540_371585803_2588082086_4944374664" />
	<connection from="252744540_371585803_2588082086_4944374664" to="252744540_371585803_2588082086_4944374665" />
	<connection from="252744540_371585803_2588082086_4944374665" to="252744540_371585803_2588082086_371585741" />
	<connection from="252744540_371585803_2588082086_371585741" to="252744540_371585803_2588082086_371585735" />
	<connection from="252744540_371585803_2588082086_371585735" to="252744540_371585803_2588082086_4944374660" />
	<connection from="252744540_371585803_2588082086_4944374660" to="252744540_371585803_2588082086_4944374661" />
	<connection from="252744540_371585803_2588082086_4944374661" to="252744540_371585803_2588082086_4944374663" />
	<connection from="252744540_371585803_2588082086_4944374663" to="252744540_371585803_2588082086_4944374662" />
	<connection from="252744540_371585803_2588082086_4944374662" to="252744540_371585803_2588082086_4944374659" />
	<connection from="252744540_371585803_2588082086_4944374659" to="252744540_371585803_2588082086_5290597330" />
	<connection from="252744540_371585803_2588082086_5290597330" to="252744540_371585803_2588082086_371585693" />
	<connection from="252744540_371585803_2588082086_371585693" to="252744540_371585803_2588082086_4944374657" />
	<connection from="252744540_371585803_2588082086_4944374657" to="252744540_371585803_2588082086_4944374658" />
	<connection from="252744540_371585803_2588082086_4944374658" to="252744540_371585803_2588082086_4944374656" />
	<connection from="252744540_371585803_2588082086_4944374656" to="252744540_371585803_2588082086_4944374655" />
	<connection from="252744540_371585803_2588082086_4944374655" to="252744540_371585803_2588082086_371585686" />
	<connection from="252744540_371585803_2588082086_371585686" to="252744540_371585803_2588082086_371585681" />
	<connection from="252744540_371585803_2588082086_371585681" to="252744540_371585803_2588082086_4944374654" />
	<connection from="252744540_371585803_2588082086_4944374654" to="252744540_371585803_2588082086_4944374653" />
	<connection from="252744540_371585803_2588082086_4944374653" to="252744540_371585803_2588082086_371585675" />
	<connection from="252744540_371585803_2588082086_371585675" to="252744540_371585803_2588082086_4944374652" />
	<connection from="252744540_371585803_2588082086_4944374652" to="252744540_371585803_2588082086_4944374651" />
	<connection from="252744540_371585803_2588082086_4944374651" to="252744540_371585803_2588082086_4944374650" />
	<connection from="252744540_371585803_2588082086_4944374650" to="252744540_371585803_2588082086_5840596903" />
	<connection from="252744540_371585803_2588082086_5840596903" to="252744540_371585803_2588082086_5840596896" />
	<connection from="252744540_371585803_2588082086_5840596896" to="252744540_371585803_2588082086_4944374649" />
	<connection from="252744540_371585803_2588082086_4944374649" to="252744540_371585803_2588082086_371585670" />
	<connection from="252744540_371585803_2588082086_371585670" to="252744540_371585803_2588082086_4944374647" />
	<connection from="252744540_371585803_2588082086_4944374647" to="252744540_371585803_2588082086_4944374648" />
	<connection from="252744540_371585803_2588082086_4944374648" to="252744540_371585803_2588082086_371585662" />
	<connection from="252744540_371585803_2588082086_371585662" to="252744540_371585803_2588082086_4944374644" />
	<connection from="252744540_371585803_2588082086_4944374644" to="252744540_371585803_2588082086_4944374645" />
	<connection from="252744540_371585803_2588082086_4944374645" to="252744540_371585803_2588082086_4944374643" />
	<connection from="252744540_371585803_2588082086_4944374643" to="252744540_371585803_2588082086_371585656" />
	<connection from="252744540_371585803_2588082086_371585656" to="252744540_371585803_2588082086_4944374646" />
	<connection from="252744540_371585803_2588082086_4944374646" to="252744540_371585803_2588082086_6289874570" />
	<connection from="252744540_371585803_2588082086_6289874570" to="252744540_371585803_2588082086_371585651" />
	<connection from="252744540_371585803_2588082086_371585651" to="252744540_371585803_2588082086_371585645" />
	<connection from="252744540_371585803_2588082086_371585645" to="252744540_371585803_2588082086_371585641" />
	<connection from="252744540_371585803_2588082086_371585641" to="252744540_371585803_2588082086_371585636" />
	<connection from="252744540_371585803_2588082086_371585636" to="252744540_371585803_2588082086_371585630" />
	<connection from="252744540_371585803_2588082086_371585630" to="252744540_2588082086_371585803_2588082086" />
	<connection from="252744540_371585803_2588082086_371585630" to="36965068_2588082086_429829588_2588082086" />
	<connection from="252682554_2587186099_2588857746_2587186099" to="252682554_2587186099_2588857746_2587186098" />
	<connection from="252682554_2587186099_2588857746_2587186098" to="252682554_2587186099_2588857746_2587186097" />
	<connection from="252682554_2587186099_2588857746_2587186097" to="252682554_2587186099_2588857746_2587186096" />
	<connection from="252682554_2587186099_2588857746_2587186096" to="252682554_2587186099_2588857746_2587186095" />
	<connection from="252682554_2587186099_2588857746_2587186095" to="252682554_2587186099_2588857746_2587186094" />
	<connection from="252682554_2587186099_2588857746_2587186094" to="252682554_2587186099_2588857746_2589618699" />
	<connection from="252682554_2587186099_2588857746_2589618699" to="252682554_2588857746_2587186099_2588857746" />
	<connection from="88429331_1027146536_2587186080_1027146536" to="88429331_1027146536_2587186080_1027146765" />
	<connection from="88429331_1027146536_2587186080_1027146765" to="88429331_1027146536_2587186080_1027147180" />
	<connection from="88429331_1027146536_2587186080_1027147180" to="252682549_2587186080_2587186081_2587186080" />
	<connection from="88429331_1027146536_2587186080_1027147180" to="88429331_2587186080_1027146416_2587186080" />
	<connection from="88429331_1027146536_2587186080_1027147180" to="88429331_2587186080_1027146536_2587186080" />
	<connection from="88429331_2589278650_1027146702_2589278650" to="88429331_1027146702_1027146416_1027146702" />
	<connection from="88429331_2589278650_1027146702_2589278650" to="88429331_1027146702_2589278650_1027146702" />
	<connection from="88429331_2589278650_1027146702_2589278650" to="88429329_1027146702_1027147126_1027146702" />
	<connection from="88429331_2589278650_1027146702_2589278650" to="88429329_1027146702_1027146834_1027146702" />
	<connection from="252912505_2589088106_1027147103_2589088106" to="252912505_1027147103_1027146169_1027147103" />
	<connection from="252912505_2589088106_1027147103_2589088106" to="252912505_1027147103_2589088106_1027147103" />
	<connection from="252912505_2589088106_1027147103_2589088106" to="88429339_1027147103_2587125069_1027147103" />
	<connection from="88429321_1027147079_2589278648_1027147079" to="88429327_2589278648_2589524836_2589278648" />
	<connection from="88429321_1027147079_2589278648_1027147079" to="88429327_2589278648_1027146208_2589278648" />
	<connection from="252925970_2589357420_2589357416_2589357420" to="252925970_2589357416_2589357420_2589357416" />
	<connection from="252925970_2589357420_2589357416_2589357420" to="252925970_2589357416_2589357418_2589357416" />
	<connection from="252925970_2589357420_2589357416_2589357420" to="88429336_2589357416_2591874289_2589357416" />
	<connection from="88429331_1027146622_1027146912_1027146622" to="88429293_1027146912_1027147040_1027146912" />
	<connection from="88429331_1027146622_1027146912_1027146622" to="88429331_1027146912_2589278650_1027146912" />
	<connection from="88429331_1027146622_1027146912_1027146622" to="88429331_1027146912_1027146622_1027146912" />
	<connection from="88429331_1027146622_1027146912_1027146622" to="88429293_1027146912_1027147099_1027146912" />
	<connection from="318476141_5706729387_5706729364_5706729387" to="599972851_5706729364_5706729378_5706729364" />
	<connection from="318476141_5706729387_5706729364_5706729387" to="318476141_5706729364_5706729387_5706729364" />
	<connection from="318476141_5706729387_5706729364_5706729387" to="318476141_5706729364_372744311_5706729364" />
	<connection from="88429328_1027146483_1027146305_1027146483" to="252887038_1027146305_1027147118_1027146305" />
	<connection from="88429328_1027146483_1027146305_1027146483" to="88429328_1027146305_1027146483_1027146305" />
	<connection from="252887038_2589278649_1027147126_2589278649" to="88429329_1027147126_1027146702_1027147126" />
	<connection from="252887038_2589278649_1027147126_2589278649" to="252887279_1027147126_2591874289_1027147126" />
	<connection from="252887038_2589278649_1027147126_2589278649" to="252887038_1027147126_2589278649_1027147126" />
	<connection from="252887038_2589278649_1027147126_2589278649" to="88429329_1027147126_1027146585_1027147126" />
	<connection from="252691655_1027146834_2587186099_1027146834" to="252691655_1027146834_2587186099_2589472191" />
	<connection from="252691655_1027146834_2587186099_2589472191" to="252691655_1027146834_2587186099_2589472190" />
	<connection from="252691655_1027146834_2587186099_2589472190" to="252691655_1027146834_2587186099_2589487895" />
	<connection from="252691655_1027146834_2587186099_2589487895" to="252682554_2587186099_2588857746_2587186099" />
	<connection from="252691655_1027146834_2587186099_2589487895" to="252682554_2587186099_2587274407_2587186099" />
	<connection from="252691655_1027146834_2587186099_2589487895" to="252691655_2587186099_1027146834_2587186099" />
	<connection from="88429324_1027147012_1027146585_1027147012" to="88429324_1027147012_1027146585_1027147102" />
	<connection from="88429324_1027147012_1027146585_1027147102" to="88429329_1027146585_1027147126_1027146585" />
	<connection from="88429324_1027147012_1027146585_1027147102" to="88429324_1027146585_1027147012_1027146585" />
	<connection from="88429324_1027147012_1027146585_1027147102" to="88429329_1027146585_2589088106_1027146585" />
	<connection from="88429331_1027146900_2589278651_1027146900" to="88429331_2589278651_1027146536_2589278651" />
	<connection from="88429331_1027146900_2589278651_1027146900" to="88429331_2589278651_1027146900_2589278651" />
	<connection from="88429331_1027146900_2589278651_1027146900" to="252914456_2589278651_2589278652_2589278651" />
	<connection from="88429336_2589357416_2591874289_2589357416" to="253229337_2591874289_2589357418_2591874289" />
	<connection from="88429336_2589357416_2591874289_2589357416" to="88429336_2591874289_2589357416_2591874289" />
	<connection from="88429336_2589357416_2591874289_2589357416" to="252887279_2591874289_1027147126_2591874289" />
	<connection from="252891218_2589088109_2589267284_2589088109" to="252912504_2589267284_2589267286_2589267284" />
	<connection from="252891218_2589088109_2589267284_2589088109" to="252891218_2589267284_2589088109_2589267284" />
	<connection from="88429293_6176399881_1027146493_6176399881" to="88429293_6176399881_1027146493_2590629137" />
	<connection from="88429293_6176399881_1027146493_2590629137" to="88429293_6176399881_1027146493_2590629138" />
	<connection from="88429293_6176399881_1027146493_2590629138" to="88429293_6176399881_1027146493_2590629180" />
	<connection from="88429293_6176399881_1027146493_2590629180" to="88429293_6176399881_1027146493_2590629142" />
	<connection from="88429293_6176399881_1027146493_2590629142" to="88429293_6176399881_1027146493_2590629143" />
	<connection from="88429293_6176399881_1027146493_2590629143" to="88429293_1027146493_6176399881_1027146493" />
	<connection from="88429293_6176399881_1027146493_2590629143" to="252891213_1027146493_2587774390_1027146493" />
	<connection from="88429293_6176399881_1027146493_2590629143" to="88429293_1027146493_1027147040_1027146493" />
	<connection from="88429293_6176399881_1027146493_2590629143" to="252891213_1027146493_2589088106_1027146493" />
	<connection from="252914456_2589278651_2589278652_2589278651" to="252914456_2589278652_2589278651_2589278652" />
	<connection from="599972846_5706729378_5706729380_5706729378" to="599972850_5706729380_5706729361_5706729380" />
	<connection from="599972846_5706729378_5706729380_5706729378" to="33051549_5706729380_372736970_5706729380" />
	<connection from="252682554_2587274407_2587186105_2587274407" to="252682554_2587274407_2587186105_2587186100" />
	<connection from="252682554_2587274407_2587186105_2587186100" to="252682554_2587274407_2587186105_2587186101" />
	<connection from="252682554_2587274407_2587186105_2587186101" to="252682554_2587274407_2587186105_2587186102" />
	<connection from="252682554_2587274407_2587186105_2587186102" to="252682554_2587274407_2587186105_2587186103" />
	<connection from="252682554_2587274407_2587186105_2587186103" to="252682554_2587274407_2587186105_2587186104" />
	<connection from="252682554_2587274407_2587186105_2587186104" to="252682555_2587186105_2590593173_2587186105" />
	<connection from="252682554_2587274407_2587186105_2587186104" to="252682554_2587186105_2587274407_2587186105" />
	<connection from="88429331_2590593154_1027146664_2590593154" to="318476141_1027146664_2590665958_1027146664" />
	<connection from="88429331_2590593154_1027146664_2590593154" to="318476141_1027146664_5706729387_1027146664" />
	<connection from="88429331_2590593154_1027146664_2590593154" to="88429331_1027146664_2590593154_1027146664" />
	<connection from="252912505_1027146208_1027146475_1027146208" to="252912505_1027146475_1027146208_1027146475" />
	<connection from="252912505_1027146208_1027146475_1027146208" to="252912505_1027146475_2589267286_1027146475" />
	<connection from="252887279_1027147126_2591874289_1027147126" to="253229337_2591874289_2589357418_2591874289" />
	<connection from="252887279_1027147126_2591874289_1027147126" to="88429336_2591874289_2589357416_2591874289" />
	<connection from="252887279_1027147126_2591874289_1027147126" to="252887279_2591874289_1027147126_2591874289" />
	<connection from="252924814_2589347381_1027146184_2589347381" to="252924814_1027146184_2589347381_1027146184" />
	<connection from="252924814_2589347381_1027146184_2589347381" to="252924815_1027146184_1027146521_1027146184" />
	<connection from="252912505_1027146475_1027146208_1027146475" to="252912505_1027146208_1027146475_1027146208" />
	<connection from="252912505_1027146475_1027146208_1027146475" to="88429327_1027146208_2589278648_1027146208" />
	<connection from="252912505_1027146475_1027146208_1027146475" to="252912505_1027146208_1027146169_1027146208" />
	<connection from="88429332_2587186088_1027146432_2587186088" to="88429332_1027146432_2587186088_1027146432" />
	<connection from="88429332_2587186088_1027146432_2587186088" to="252682552_1027146432_2587186093_1027146432" />
	<connection from="318476141_1106504811_372744311_1106504811" to="318476141_1106504811_372744311_2487321324" />
	<connection from="318476141_1106504811_372744311_2487321324" to="318476141_1106504811_372744311_370927072" />
	<connection from="318476141_1106504811_372744311_370927072" to="318476141_1106504811_372744311_6086122295" />
	<connection from="318476141_1106504811_372744311_6086122295" to="318476141_1106504811_372744311_370927075" />
	<connection from="318476141_1106504811_372744311_370927075" to="318476141_1106504811_372744311_2487321209" />
	<connection from="318476141_1106504811_372744311_2487321209" to="318476141_1106504811_372744311_370927078" />
	<connection from="318476141_1106504811_372744311_370927078" to="318476141_1106504811_372744311_6242416794" />
	<connection from="318476141_1106504811_372744311_6242416794" to="318476141_1106504811_372744311_5256926177" />
	<connection from="318476141_1106504811_372744311_5256926177" to="318476141_1106504811_372744311_370927152" />
	<connection from="318476141_1106504811_372744311_370927152" to="318476141_1106504811_372744311_370927153" />
	<connection from="318476141_1106504811_372744311_370927153" to="318476141_1106504811_372744311_370927155" />
	<connection from="318476141_1106504811_372744311_370927155" to="318476141_1106504811_372744311_5256925994" />
	<connection from="318476141_1106504811_372744311_5256925994" to="318476141_1106504811_372744311_370927156" />
	<connection from="318476141_1106504811_372744311_370927156" to="318476141_1106504811_372744311_370927157" />
	<connection from="318476141_1106504811_372744311_370927157" to="318476141_1106504811_372744311_2487321305" />
	<connection from="318476141_1106504811_372744311_2487321305" to="318476141_1106504811_372744311_370927159" />
	<connection from="318476141_1106504811_372744311_370927159" to="318476141_1106504811_372744311_2318321151" />
	<connection from="318476141_1106504811_372744311_2318321151" to="318476141_1106504811_372744311_5768910934" />
	<connection from="318476141_1106504811_372744311_5768910934" to="318476141_1106504811_372744311_2487321212" />
	<connection from="318476141_1106504811_372744311_2487321212" to="318476141_1106504811_372744311_370927174" />
	<connection from="318476141_1106504811_372744311_370927174" to="318476141_1106504811_372744311_370927175" />
	<connection from="318476141_1106504811_372744311_370927175" to="318476141_1106504811_372744311_5768910933" />
	<connection from="318476141_1106504811_372744311_5768910933" to="318476141_1106504811_372744311_370927176" />
	<connection from="318476141_1106504811_372744311_370927176" to="318476141_1106504811_372744311_2318321150" />
	<connection from="318476141_1106504811_372744311_2318321150" to="318476141_1106504811_372744311_2318321149" />
	<connection from="318476141_1106504811_372744311_2318321149" to="318476141_1106504811_372744311_370927178" />
	<connection from="318476141_1106504811_372744311_370927178" to="318476141_1106504811_372744311_2318321146" />
	<connection from="318476141_1106504811_372744311_2318321146" to="318476141_1106504811_372744311_370927179" />
	<connection from="318476141_1106504811_372744311_370927179" to="318476141_1106504811_372744311_2318321148" />
	<connection from="318476141_1106504811_372744311_2318321148" to="318476141_1106504811_372744311_370927180" />
	<connection from="318476141_1106504811_372744311_370927180" to="318476141_1106504811_372744311_370927181" />
	<connection from="318476141_1106504811_372744311_370927181" to="318476141_1106504811_372744311_2318321147" />