<edges>
	<edge id="252691653_2587274395_2587186081_2587274395" from="2587274395" to="2587186081" numLanes="1" speed="13.89" />
	<edge id="252887038_1027147118_1027147040_1027147118" from="1027147118" to="1027147040" numLanes="1" speed="13.89" />
	<edge id="88429324_1027146585_1027147012_1027146585" from="1027146585" to="1027147102" numLanes="1" speed="13.89" />
	<edge id="88429324_1027146585_1027147012_1027147102" from="1027147102" to="1027147012" numLanes="1" speed="13.89" />
	<edge id="252691654_2587274405_2587274395_2587274405" from="2587274405" to="2587274403" numLanes="1" speed="8.33" />
	<edge id="252691654_2587274405_2587274395_2587274403" from="2587274403" to="2587274395" numLanes="1" speed="8.33" />
	<edge id="252912505_2589267286_1027146475_2589267286" from="2589267286" to="1027146219" numLanes="1" speed="13.89" />
	<edge id="252912505_2589267286_1027146475_1027146219" from="1027146219" to="1027146475" numLanes="1" speed="13.89" />
	<edge id="252887038_1027147126_2589278649_1027147126" from="1027147126" to="2589278649" numLanes="1" speed="13.89" />
	<edge id="599972850_5706729380_5706729361_5706729380" from="5706729380" to="5706729361" numLanes="2" speed="13.89" />
	<edge id="88429331_1027146702_2589278650_1027146702" from="1027146702" to="2589278650" numLanes="1" speed="13.89" />
	<edge id="88429331_1027146912_1027146622_1027146912" from="1027146912" to="1027146622" numLanes="1" speed="13.89" />
	<edge id="252682550_2587129236_2587186087_2587129236" from="2587129236" to="2587186082" numLanes="1" speed="8.33" />
	<edge id="252682550_2587129236_2587186087_2587186082" from="2587186082" to="2587186083" numLanes="1" speed="8.33" />
	<edge id="252682550_2587129236_2587186087_2587186083" from="2587186083" to="2587186084" numLanes="1" speed="8.33" />
	<edge id="252682550_2587129236_2587186087_2587186084" from="2587186084" to="2587186085" numLanes="1" speed="8.33" />
	<edge id="252682550_2587129236_2587186087_2587186085" from="2587186085" to="2587186086" numLanes="1" speed="8.33" />
	<edge id="252682550_2587129236_2587186087_2587186086" from="2587186086" to="2587186087" numLanes="1" speed="8.33" />
	<edge id="252925970_2589357416_2589357418_2589357416" from="2589357416" to="2589357418" numLanes="1" speed="13.89" />
	<edge id="252682550_2587186087_2587129236_2587186087" from="2587186087" to="2587186086" numLanes="1" speed="8.33" />
	<edge id="252682550_2587186087_2587129236_2587186086" from="2587186086" to="2587186085" numLanes="1" speed="8.33" />
	<edge id="252682550_2587186087_2587129236_2587186085" from="2587186085" to="2587186084" numLanes="1" speed="8.33" />
	<edge id="252682550_2587186087_2587129236_2587186084" from="2587186084" to="2587186083" numLanes="1" speed="8.33" />
	<edge id="252682550_2587186087_2587129236_2587186083" from="2587186083" to="2587186082" numLanes="1" speed="8.33" />
	<edge id="252682550_2587186087_2587129236_2587186082" from="2587186082" to="2587129236" numLanes="1" speed="8.33" />
	<edge id="253082508_2590593175_2590593173_2590593175" from="2590593175" to="2590593173" numLanes="1" speed="8.33" />
	<edge id="88429332_1027147012_1027146536_1027147012" from="1027147012" to="1027146697" numLanes="1" speed="13.89" />
	<edge id="88429332_1027147012_1027146536_1027146697" from="1027146697" to="2589444294" numLanes="1" speed="13.89" />
	<edge id="88429332_1027147012_1027146536_2589444294" from="2589444294" to="1027146536" numLanes="1" speed="13.89" />
	<edge id="88429327_1027147058_2589347381_1027147058" from="1027147058" to="1027146334" numLanes="1" speed="13.89" />
	<edge id="88429327_1027147058_2589347381_1027146334" from="1027146334" to="2589347381" numLanes="1" speed="13.89" />
	<edge id="252671892_2587104912_1027147058_2587104912" from="2587104912" to="2587104914" numLanes="2" speed="8.33" />
	<edge id="252671892_2587104912_1027147058_2587104914" from="2587104914" to="1027147058" numLanes="2" speed="8.33" />
	<edge id="88429327_1027147058_2589524836_1027147058" from="1027147058" to="2589524836" numLanes="1" speed="13.89" />
	<edge id="252925970_2589357416_2589357420_2589357416" from="2589357416" to="2589357420" numLanes="1" speed="13.89" />
	<edge id="88429331_1027146622_1027146483_1027146622" from="1027146622" to="1027146483" numLanes="1" speed="13.89" />
	<edge id="252914455_2589278650_2589278649_2589278650" from="2589278650" to="2589278649" numLanes="1" speed="13.89" />
	<edge id="88429293_1027147040_1027146493_1027147040" from="1027147040" to="2590631155" numLanes="1" speed="13.89" />
	<edge id="88429293_1027147040_1027146493_2590631155" from="2590631155" to="1027146493" numLanes="1" speed="13.89" />
	<edge id="318476141_1027146664_5706729387_1027146664" from="1027146664" to="5706729382" numLanes="1" speed="25.00" />
	<edge id="318476141_1027146664_5706729387_5706729382" from="5706729382" to="370927432" numLanes="1" speed="25.00" />
	<edge id="318476141_1027146664_5706729387_370927432" from="370927432" to="5706729387" numLanes="1" speed="25.00" />
	<edge id="252682554_2587186099_2587274407_2587186099" from="2587186099" to="2589490399" numLanes="1" speed="8.33" />
	<edge id="252682554_2587186099_2587274407_2589490399" from="2589490399" to="2587274407" numLanes="1" speed="8.33" />
	<edge id="253229337_2589357418_1027146416_2589357418" from="2589357418" to="1027146416" numLanes="1" speed="13.89" />
	<edge id="252912505_1027146169_1027147103_1027146169" from="1027146169" to="1027147103" numLanes="1" speed="13.89" />
	<edge id="252887279_2591874289_1027147126_2591874289" from="2591874289" to="1027147126" numLanes="1" speed="13.89" />
	<edge id="252744540_371585803_2588082086_371585803" from="371585803" to="371585796" numLanes="1" speed="25.00" />
	<edge id="252744540_371585803_2588082086_371585796" from="371585796" to="371585789" numLanes="1" speed="25.00" />
	<edge id="252744540_371585803_2588082086_371585789" from="371585789" to="5694896384" numLanes="1" speed="25.00" />
	<edge id="252744540_371585803_2588082086_5694896384" from="5694896384" to="371585783" numLanes="1" speed="25.00" />
	<edge id="252744540_371585803_2588082086_371585783" from="371585783" to="4944374667" numLanes="1" speed="25.00" />
	<edge id="252744540_371585803_2588082086_4944374667" from="4944374667" to="4944374666" numLanes="1" speed="25.00" />
	<edge id="252744540_371585803_2588082086_4944374666" from="4944374666" to="371585775" numLanes="1" speed="25.00" />
	<edge id="252744540_371585803_2588082086_371585775" from="371585775" to="4944374664" numLanes="1" speed="25.00" />
	<edge id="252744540_371585803_2588082086_4944374664" from="4944374664" to="4944374665" numLanes="1" speed="25.00" />
	<edge id="252744540_371585803_2588082086_4944374665" from="4944374665" to="371585741" numLanes="1" speed="25.00" />
	<edge id="252744540_371585803_2588082086_371585741" from="371585741" to="371585735" numLanes="1" speed="25.00" />
	<edge id="252744540_371585803_2588082086_371585735" from="371585735" to="4944374660" numLanes="1" speed="25.00" />
	<edge id="252744540_371585803_2588082086_4944374660" from="4944374660" to="4944374661" numLanes="1" speed="25.00" />
	<edge id="252744540_371585803_2588082086_4944374661" from="4944374661" to="4944374663" numLanes="1" speed="25.00" />
	<edge id="252744540_371585803_2588082086_4944374663" from="4944374663" to="4944374662" numLanes="1" speed="25.00" />
	<edge id="252744540_371585803_2588082086_4944374662" from="4944374662" to="4944374659" numLanes="1" speed="25.00" />
	<edge id="252744540_371585803_2588082086_4944374659" from="4944374659" to="5290597330" numLanes="1" speed="25.00" />
	<edge id="252744540_371585803_2588082086_5290597330" from="5290597330" to="371585693" numLanes="1" speed="25.00" />
	<edge id="252744540_371585803_2588082086_371585693" from="371585693" to="4944374657" numLanes="1" speed="25.00" />
	<edge id="252744540_371585803_2588082086_4944374657" from="4944374657" to="4944374658" numLanes="1" speed="25.00" />
	<edge id="252744540_371585803_2588082086_4944374658" from="4944374658" to="4944374656" numLanes="1" speed="25.00" />
	<edge id="252744540_371585803_2588082086_4944374656" from="4944374656" to="4944374655" numLanes="1" speed="25.00" />
	<edge id="252744540_371585803_2588082086_4944374655" from="4944374655" to="371585686" numLanes="1" speed="25.00" />
	<edge id="252744540_371585803_2588082086_371585686" from="371585686" to="371585681" numLanes="1" speed="25.00" />
	<edge id="252744540_371585803_2588082086_371585681" from="371585681" to="4944374654" numLanes="1" speed="25.00" />
	<edge id="252744540_371585803_2588082086_4944374654" from="4944374654" to="4944374653" numLanes="1" speed="25.00" />
	<edge id="252744540_371585803_2588082086_4944374653" from="4944374653" to="371585675" numLanes="1" speed="25.00" />
	<edge id="252744540_371585803_2588082086_371585675" from="371585675" to="4944374652" numLanes="1" speed="25.00" />
	<edge id="252744540_371585803_2588082086_4944374652" from="4944374652" to="4944374651" numLanes="1" speed="25.00" />
	<edge id="252744540_371585803_2588082086_4944374651" from="4944374651" to="4944374650" numLanes="1" speed="25.00" />
	<edge id="252744540_371585803_2588082086_4944374650" from="4944374650" to="5840596903" numLanes="1" speed="25.00" />
	<edge id="252744540_371585803_2588082086_5840596903" from="5840596903" to="5840596896" numLanes="1" speed="25.00" />
	<edge id="252744540_371585803_2588082086_5840596896" from="5840596896" to="4944374649" numLanes="1" speed="25.00" />
	<edge id="252744540_371585803_2588082086_4944374649" from="4944374649" to="371585670" numLanes="1" speed="25.00" />
	<edge id="252744540_371585803_2588082086_371585670" from="371585670" to="4944374647" numLanes="1" speed="25.00" />
	<edge id="252744540_371585803_2588082086_4944374647" from="4944374647" to="4944374648" numLanes="1" speed="25.00" />
	<edge id="252744540_371585803_2588082086_4944374648" from="4944374648" to="371585662" numLanes="1" speed="25.00" />
	<edge id="252744540_371585803_2588082086_371585662" from="371585662" to="4944374644" numLanes="1" speed="25.00" />
	<edge id="252744540_371585803_2588082086_4944374644" from="4944374644" to="4944374645" numLanes="1" speed="25.00" />
	<edge id="252744540_371585803_2588082086_4944374645" from="4944374645" to="4944374643" numLanes="1" speed="25.00" />
	<edge id="252744540_371585803_2588082086_4944374643" from="4944374643" to="371585656" numLanes="1" speed="25.00" />
	<edge id="252744540_371585803_2588082086_371585656" from="371585656" to="4944374646" numLanes="1" speed="25.00" />
	<edge id="252744540_371585803_2588082086_4944374646" from="4944374646" to="6289874570" numLanes="1" speed="25.00" />
	<edge id="252744540_371585803_2588082086_6289874570" from="6289874570" to="371585651" numLanes="1" speed="25.00" />
	<edge id="252744540_371585803_2588082086_371585651" from="371585651" to="371585645" numLanes="1" speed="25.00" />
	<edge id="252744540_371585803_2588082086_371585645" from="371585645" to="371585641" numLanes="1" speed="25.00" />
	<edge id="252744540_371585803_2588082086_371585641" from="371585641" to="371585636" numLanes="1" speed="25.00" />
	<edge id="252744540_371585803_2588082086_371585636" from="371585636" to="371585630" numLanes="1" speed="25.00" />
	<edge id="252744540_371585803_2588082086_371585630" from="371585630" to="2588082086" numLanes="1" speed="25.00" />
	<edge id="252682554_2587186099_2588857746_2587186099" from="2587186099" to="2587186098" numLanes="1" speed="8.33" />
	<edge id="252682554_2587186099_2588857746_2587186098" from="2587186098" to="2587186097" numLanes="1" speed="8.33" />
	<edge id="252682554_2587186099_2588857746_2587186097" from="2587186097" to="2587186096" numLanes="1" speed="8.33" />
	<edge id="252682554_2587186099_2588857746_2587186096" from="2587186096" to="2587186095" numLanes="1" speed="8.33" />
	<edge id="252682554_2587186099_2588857746_2587186095" from="2587186095" to="2587186094" numLanes="1" speed="8.33" />
	<edge id="252682554_2587186099_2588857746_2587186094" from="2587186094" to="2589618699" numLanes="1" speed="8.33" />
	<edge id="252682554_2587186099_2588857746_2589618699" from="2589618699" to="2588857746" numLanes="1" speed="8.33" />
	<edge id="88429331_1027146536_2587186080_1027146536" from="1027146536" to="1027146765" numLanes="1" speed="13.89" />
	<edge id="88429331_1027146536_2587186080_1027146765" from="1027146765" to="1027147180" numLanes="1" speed="13.89" />
	<edge id="88429331_1027146536_2587186080_1027147180" from="1027147180" to="2587186080" numLanes="1" speed="13.89" />
	<edge id="88429331_2589278650_1027146702_2589278650" from="2589278650" to="1027146702" numLanes="1" speed="13.89" />
	<edge id="252912505_2589088106_1027147103_2589088106" from="2589088106" to="1027147103" numLanes="1" speed="13.89" />
	<edge id="88429321_1027147079_2589278648_1027147079" from="1027147079" to="2589278648" numLanes="2" speed="13.89" />
	<edge id="252925970_2589357420_2589357416_2589357420" from="2589357420" to="2589357416" numLanes="1" speed="13.89" />
	<edge id="88429331_1027146622_1027146912_1027146622" from="1027146622" to="1027146912" numLanes="1" speed="13.89" />
	<edge id="318476141_5706729387_5706729364_5706729387" from="5706729387" to="5706729364" numLanes="1" speed="25.00" />
	<edge id="88429328_1027146483_1027146305_1027146483" from="1027146483" to="1027146305" numLanes="1" speed="13.89" />
	<edge id="252887038_2589278649_1027147126_2589278649" from="2589278649" to="1027147126" numLanes="1" speed="13.89" />
	<edge id="252691655_1027146834_2587186099_1027146834" from="1027146834" to="2589472191" numLanes="1" speed="8.33" />
	<edge id="252691655_1027146834_2587186099_2589472191" from="2589472191" to="2589472190" numLanes="1" speed="8.33" />
	<edge id="252691655_1027146834_2587186099_2589472190" from="2589472190" to="2589487895" numLanes="1" speed="8.33" />
	<edge id="252691655_1027146834_2587186099_2589487895" from="2589487895" to="2587186099" numLanes="1" speed="8.33" />
	<edge id="88429324_1027147012_1027146585_1027147012" from="1027147012" to="1027147102" numLanes="1" speed="13.89" />
	<edge id="88429324_1027147012_1027146585_1027147102" from="1027147102" to="1027146585" numLanes="1" speed="13.89" />
	<edge id="88429331_1027146900_2589278651_1027146900" from="1027146900" to="2589278651" numLanes="1" speed="13.89" />
	<edge id="88429336_2589357416_2591874289_2589357416" from="2589357416" to="2591874289" numLanes="1" speed="13.89" />
	<edge id="252891218_2589088109_2589267284_2589088109" from="2589088109" to="2589267284" numLanes="1" speed="13.89" />
	<edge id="88429293_6176399881_1027146493_6176399881" from="6176399881" to="2590629137" numLanes="1" speed="13.89" />
	<edge id="88429293_6176399881_1027146493_2590629137" from="2590629137" to="2590629138" numLanes="1" speed="13.89" />
	<edge id="88429293_6176399881_1027146493_2590629138" from="2590629138" to="2590629180" numLanes="1" speed="13.89" />
	<edge id="88429293_6176399881_1027146493_2590629180" from="2590629180" to="2590629142" numLanes="1" speed="13.89" />
	<edge id="88429293_6176399881_1027146493_2590629142" from="2590629142" to="2590629143" numLanes="1" speed="13.89" />
	<edge id="88429293_6176399881_1027146493_2590629143" from="2590629143" to="1027146493" numLanes="1" speed="13.89" />
	<edge id="252914456_2589278651_2589278652_2589278651" from="2589278651" to="2589278652" numLanes="1" speed="13.89" />
	<edge id="599972846_5706729378_5706729380_5706729378" from="5706729378" to="5706729380" numLanes="2" speed="13.89" />
	<edge id="252682554_2587274407_2587186105_2587274407" from="2587274407" to="2587186100" numLanes="1" speed="8.33" />
	<edge id="252682554_2587274407_2587186105_2587186100" from="2587186100" to="2587186101" numLanes="1" speed="8.33" />
	<edge id="252682554_2587274407_2587186105_2587186101" from="2587186101" to="2587186102" numLanes="1" speed="8.33" />
	<edge id="252682554_2587274407_2587186105_2587186102" from="2587186102" to="2587186103" numLanes="1" speed="8.33" />
	<edge id="252682554_2587274407_2587186105_2587186103" from="2587186103" to="2587186104" numLanes="1" speed="8.33" />
	<edge id="252682554_2587274407_2587186105_2587186104" from="2587186104" to="2587186105" numLanes="1" speed="8.33" />
	<edge id="88429331_2590593154_1027146664_2590593154" from="2590593154" to="1027146664" numLanes="1" speed="13.89" />
	<edge id="252912505_1027146208_1027146475_1027146208" from="1027146208" to="1027146475" numLanes="1" speed="13.89" />
	<edge id="252887279_1027147126_2591874289_1027147126" from="1027147126" to="2591874289" numLanes="1" speed="13.89" />
	<edge id="252924814_2589347381_1027146184_2589347381" from="2589347381" to="1027146184" numLanes="1" speed="13.89" />
	<edge id="252912505_1027146475_1027146208_1027146475" from="1027146475" to="1027146208" numLanes="1" speed="13.89" />
	<edge id="88429332_2587186088_1027146432_2587186088" from="2587186088" to="1027146432" numLanes="1" speed="13.89" />
	<edge id="318476141_1106504811_372744311_1106504811" from="1106504811" to="2487321324" numLanes="1" speed="25.00" />
	<edge id="318476141_1106504811_372744311_2487321324" from="2487321324" to="370927072" numLanes="1" speed="25.00" />
	<edge id="318476141_1106504811_372744311_370927072" from="370927072" to="6086122295" numLanes="1" speed="25.00" />
	<edge id="318476141_1106504811_372744311_6086122295" from="6086122295" to="370927075" numLanes="1" speed="25.00" />
	<edge id="318476141_1106504811_372744311_370927075" from="370927075" to="2487321209" numLanes="1" speed="25.00" />
	<edge id="318476141_1106504811_372744311_2487321209" from="2487321209" to="370927078" numLanes="1" speed="25.00" />
	<edge id="318476141_1106504811_372744311_370927078" from="370927078" to="6242416794" numLanes="1" speed="25.00" />
	<edge id="318476141_1106504811_372744311_6242416794" from="6242416794" to="5256926177" numLanes="1" speed="25.00" />
	<edge id="318476141_1106504811_372744311_5256926177" from="5256926177" to="370927152" numLanes="1" speed="25.00" />
	<edge id="318476141_1106504811_372744311_370927152" from="370927152" to="370927153" numLanes="1" speed="25.00" />
	<edge id="318476141_1106504811_372744311_370927153" from="370927153" to="370927155" numLanes="1" speed="25.00" />
	<edge id="318476141_1106504811_372744311_370927155" from="370927155" to="5256925994" numLanes="1" speed="25.00" />
	<edge id="318476141_1106504811_372744311_5256925994" from="5256925994" to="370927156" numLanes="1" speed="25.00" />
	<edge id="318476141_1106504811_372744311_370927156" from="370927156" to="370927157" numLanes="1" speed="25.00" />
	<edge id="318476141_1106504811_372744311_370927157" from="370927157" to="2487321305" numLanes="1" speed="25.00" />
	<edge id="318476141_1106504811_372744311_2487321305" from="2487321305" to="370927159" numLanes="1" speed="25.00" />
	<edge id="318476141_1106504811_372744311_370927159" from="370927159" to="2318321151" numLanes="1" speed="25.00" />
	<edge id="318476141_1106504811_372744311_2318321151" from="2318321151" to="5768910934" numLanes="1" speed="25.00" />
	<edge id="318476141_1106504811_372744311_5768910934" from="5768910934" to="2487321212" numLanes="1" speed="25.00" />
	<edge id="318476141_1106504811_372744311_2487321212" from="2487321212" to="370927174" numLanes="1" speed="25.00" />
	<edge id="318476141_1106504811_372744311_370927174" from="370927174" to="370927175" numLanes="1" speed="25.00" />
	<edge id="318476141_1106504811_372744311_370927175" from="370927175" to="5768910933" numLanes="1" speed="25.00" />
	<edge id="318476141_1106504811_372744311_5768910933" from="5768910933" to="370927176" numLanes="1" speed="25.00" />
	<edge id="318476141_1106504811_372744311_370927176" from="370927176" to="2318321150" numLanes="1" speed="25.00" />
	<edge id="318476141_1106504811_372744311_2318321150" from="2318321150" to="2318321149" numLanes="1" speed="25.00" />
	<edge id="318476141_1106504811_372744311_2318321149" from="2318321149" to="370927178" numLanes="1" speed="25.00" />
	<edge id="318476141_1106504811_372744311_370927178" from="370927178" to="2318321146" numLanes="1" speed="25.00" />
	<edge id="318476141_1106504811_372744311_2318321146" from="2318321146" to="370927179" numLanes="1" speed="25.00" />
	<edge id="318476141_1106504811_372744311_370927179" from="370927179" to="2318321148" numLanes="1" speed="25.00" />
	<edge id="318476141_1106504811_372744311_2318321148" from="2318321148" to="370927180" numLanes="1" speed="25.00" />
	<edge id="318476141_1106504811_372744311_370927180" from="370927180" to="370927181" numLanes="1" speed="25.00" />
	<edge id="318476141_1106504811_372744311_370927181" from="370927181" to="2318321147" numLanes="1" speed="25.00" />
	<edge id="318476141_1106504811_372744311_2318321147" from="2318321147" to="370927189" numLanes="1" speed="25.00" />
	<edge id="318476141_1106504811_372744311_370927189" from="370927189" to="5256946372" numLanes="1" speed="25.00" />
	<edge id="318476141_1106504811_372744311_5256946372" from="5256946372" to="2318321152" numLanes="1" speed="25.00" />
	<edge id="318476141_1106504811_372744311_2318321152" from="2318321152" to="370927190" numLanes="1" speed="25.00" />
	<edge id="318476141_1106504811_372744311_370927190" from="370927190" to="370927191" numLanes="1" speed="25.00" />
	<edge id="318476141_1106504811_372744311_370927191" from="370927191" to="370927260" numLanes="1" speed="25.00" />
	<edge id="318476141_1106504811_372744311_370927260" from="370927260" to="2487329157" numLanes="1" speed="25.00" />
	<edge id="318476141_1106504811_372744311_2487329157" from="2487329157" to="370927262" numLanes="1" speed="25.00" />
	<edge id="318476141_1106504811_372744311_370927262" from="370927262" to="2487329188" numLanes="1" speed="25.00" />
	<edge id="318476141_1106504811_372744311_2487329188" from="2487329188" to="2487329089" numLanes="1" speed="25.00" />
	<edge id="318476141_1106504811_372744311_2487329089" from="2487329089" to="2487329259" numLanes="1" speed="25.00" />
	<edge id="318476141_1106504811_372744311_2487329259" from="2487329259" to="2487329172" numLanes="1" speed="25.00" />
	<edge id="318476141_1106504811_372744311_2487329172" from="2487329172" to="370927265" numLanes="1" speed="25.00" />
	<edge id="318476141_1106504811_372744311_370927265" from="370927265" to="2487329043" numLanes="1" speed="25.00" />
	<edge id="318476141_1106504811_372744311_2487329043" from="2487329043" to="1606598982" numLanes="1" speed="25.00" />
	<edge id="318476141_1106504811_372744311_1606598982" from="1606598982" to="370927270" numLanes="1" speed="25.00" />
	<edge id="318476141_1106504811_372744311_370927270" from="370927270" to="5256946544" numLanes="1" speed="25.00" />
	<edge id="318476141_1106504811_372744311_5256946544" from="5256946544" to="370927273" numLanes="1" speed="25.00" />
	<edge id="318476141_1106504811_372744311_370927273" from="370927273" to="370927275" numLanes="1" speed="25.00" />
	<edge id="318476141_1106504811_372744311_370927275" from="370927275" to="370927278" numLanes="1" speed="25.00" />
	<edge id="318476141_1106504811_372744311_370927278" from="370927278" to="370927281" numLanes="1" speed="25.00" />
	<edge id="318476141_1106504811_372744311_370927281" from="370927281" to="370927291" numLanes="1" speed="25.00" />
	<edge id="318476141_1106504811_372744311_370927291" from="370927291" to="370927296" numLanes="1" speed="25.00" />
	<edge id="318476141_1106504811_372744311_370927296" from="370927296" to="370927300" numLanes="1" speed="25.00" />
	<edge id="318476141_1106504811_372744311_370927300" from="370927300" to="370927303" numLanes="1" speed="25.00" />
	<edge id="318476141_1106504811_372744311_370927303" from="370927303" to="6242416805" numLanes="1" speed="25.00" />
	<edge id="318476141_1106504811_372744311_6242416805" from="6242416805" to="6242416804" numLanes="1" speed="25.00" />
	<edge id="318476141_1106504811_372744311_6242416804" from="6242416804" to="370927305" numLanes="1" speed="25.00" />
	<edge id="318476141_1106504811_372744311_370927305" from="370927305" to="6363406683" numLanes="1" speed="25.00" />
	<edge id="318476141_1106504811_372744311_6363406683" from="6363406683" to="6242416803" numLanes="1" speed="25.00" />
	<edge id="318476141_1106504811_372744311_6242416803" from="6242416803" to="370927308" numLanes="1" speed="25.00" />
	<edge id="318476141_1106504811_372744311_370927308" from="370927308" to="6242416802" numLanes="1" speed="25.00" />
	<edge id="318476141_1106504811_372744311_6242416802" from="6242416802" to="6242416801" numLanes="1" speed="25.00" />
	<edge id="318476141_1106504811_372744311_6242416801" from="6242416801" to="370927310" numLanes="1" speed="25.00" />
	<edge id="318476141_1106504811_372744311_370927310" from="370927310" to="370927313" numLanes="1" speed="25.00" />
	<edge id="318476141_1106504811_372744311_370927313" from="370927313" to="370927316" numLanes="1" speed="25.00" />
	<edge id="318476141_1106504811_372744311_370927316" from="370927316" to="6153938101" numLanes="1" speed="25.00" />
	<edge id="318476141_1106504811_372744311_6153938101" from="6153938101" to="2590665965" numLanes="1" speed="25.00" />
	<edge id="318476141_1106504811_372744311_2590665965" from="2590665965" to="2590665975" numLanes="1" speed="25.00" />
	<edge id="318476141_1106504811_372744311_2590665975" from="2590665975" to="6153938102" numLanes="1" speed="25.00" />
	<edge id="318476141_1106504811_372744311_6153938102" from="6153938102" to="6153938110" numLanes="1" speed="25.00" />
	<edge id="318476141_1106504811_372744311_6153938110" from="6153938110" to="6153938103" numLanes="1" speed="25.00" />
	<edge id="318476141_1106504811_372744311_6153938103" from="6153938103" to="6153938105" numLanes="1" speed="25.00" />
	<edge id="318476141_1106504811_372744311_6153938105" from="6153938105" to="6153938120" numLanes="1" speed="25.00" />
	<edge id="318476141_1106504811_372744311_6153938120" from="6153938120" to="6153938104" numLanes="1" speed="25.00" />
	<edge id="318476141_1106504811_372744311_6153938104" from="6153938104" to="370927318" numLanes="1" speed="25.00" />
	<edge id="318476141_1106504811_372744311_370927318" from="370927318" to="2590665963" numLanes="1" speed="25.00" />
	<edge id="318476141_1106504811_372744311_2590665963" from="2590665963" to="2590665964" numLanes="1" speed="25.00" />
	<edge id="318476141_1106504811_372744311_2590665964" from="2590665964" to="2590666021" numLanes="1" speed="25.00" />
	<edge id="318476141_1106504811_372744311_2590666021" from="2590666021" to="370927320" numLanes="1" speed="25.00" />
	<edge id="318476141_1106504811_372744311_370927320" from="370927320" to="2590665962" numLanes="1" speed="25.00" />
	<edge id="318476141_1106504811_372744311_2590665962" from="2590665962" to="370927322" numLanes="1" speed="25.00" />
	<edge id="318476141_1106504811_372744311_370927322" from="370927322" to="370927325" numLanes="1" speed="25.00" />
	<edge id="318476141_1106504811_372744311_370927325" from="370927325" to="2590665961" numLanes="1" speed="25.00" />
	<edge id="318476141_1106504811_372744311_2590665961" from="2590665961" to="2590670187" numLanes="1" speed="25.00" />
	<edge id="318476141_1106504811_372744311_2590670187" from="2590670187" to="2590666073" numLanes="1" speed="25.00" />
	<edge id="318476141_1106504811_372744311_2590666073" from="2590666073" to="370927328" numLanes="1" speed="25.00" />
	<edge id="318476141_1106504811_372744311_370927328" from="370927328" to="370927332" numLanes="1" speed="25.00" />
	<edge id="318476141_1106504811_372744311_370927332" from="370927332" to="370927335" numLanes="1" speed="25.00" />
	<edge id="318476141_1106504811_372744311_370927335" from="370927335" to="370927337" numLanes="1" speed="25.00" />
	<edge id="318476141_1106504811_372744311_370927337" from="370927337" to="2592943313" numLanes="1" speed="25.00" />
	<edge id="318476141_1106504811_372744311_2592943313" from="2592943313" to="370927343" numLanes="1" speed="25.00" />
	<edge id="318476141_1106504811_372744311_370927343" from="370927343" to="372736614" numLanes="1" speed="25.00" />
	<edge id="318476141_1106504811_372744311_372736614" from="372736614" to="6153529396" numLanes="1" speed="25.00" />
	<edge id="318476141_1106504811_372744311_6153529396" from="6153529396" to="2592943310" numLanes="1" speed="25.00" />
	<edge id="318476141_1106504811_372744311_2592943310" from="2592943310" to="6363406767" numLanes="1" speed="25.00" />
	<edge id="318476141_1106504811_372744311_6363406767" from="6363406767" to="370927348" numLanes="1" speed="25.00" />
	<edge id="318476141_1106504811_372744311_370927348" from="370927348" to="5823442568" numLanes="1" speed="25.00" />
	<edge id="318476141_1106504811_372744311_5823442568" from="5823442568" to="2590665959" numLanes="1" speed="25.00" />
	<edge id="318476141_1106504811_372744311_2590665959" from="2590665959" to="2592943294" numLanes="1" speed="25.00" />
	<edge id="318476141_1106504811_372744311_2592943294" from="2592943294" to="370927352" numLanes="1" speed="25.00" />
	<edge id="318476141_1106504811_372744311_370927352" from="370927352" to="2590665960" numLanes="1" speed="25.00" />
	<edge id="318476141_1106504811_372744311_2590665960" from="2590665960" to="370927355" numLanes="1" speed="25.00" />
	<edge id="318476141_1106504811_372744311_370927355" from="370927355" to="370927370" numLanes="1" speed="25.00" />
	<edge id="318476141_1106504811_372744311_370927370" from="370927370" to="2592930465" numLanes="1" speed="25.00" />
	<edge id="318476141_1106504811_372744311_2592930465" from="2592930465" to="370927375" numLanes="1" speed="25.00" />
	<edge id="318476141_1106504811_372744311_370927375" from="370927375" to="370927379" numLanes="1" speed="25.00" />
	<edge id="318476141_1106504811_372744311_370927379" from="370927379" to="370927382" numLanes="1" speed="25.00" />
	<edge id="318476141_1106504811_372744311_370927382" from="370927382" to="370927387" numLanes="1" speed="25.00" />
	<edge id="318476141_1106504811_372744311_370927387" from="370927387" to="2592930513" numLanes="1" speed="25.00" />