<nodes>
	<node id="5256925994" x="581063.6092" y="4272781.0011" z="0.0000" type="priority" />
	<node id="370927348" x="576878.1834" y="4266858.7855" z="0.0000" type="priority" />
	<node id="370927343" x="576997.5778" y="4267144.7845" z="0.0000" type="priority" />
	<node id="1027147126" x="572757.2796" y="4266152.8588" z="0.0000" type="priority" />
	<node id="6176399859" x="573482.3166" y="4266293.0766" z="0.0000" type="priority" />
	<node id="2590670187" x="577618.6500" y="4267587.5130" z="0.0000" type="priority" />
	<node id="370927352" x="576785.2180" y="4266761.5561" z="0.0000" type="priority" />
	<node id="2587104959" x="572492.8582" y="4266252.2922" z="0.0000" type="priority" />
	<node id="1027147118" x="572874.9394" y="4265930.8699" z="0.0000" type="priority" />
	<node id="4944374648" x="573260.0301" y="4264353.4657" z="0.0000" type="priority" />
	<node id="4944374647" x="573241.1515" y="4264206.0419" z="0.0000" type="priority" />
	<node id="4944374646" x="573263.8062" y="4264646.2053" z="0.0000" type="priority" />
	<node id="4944374645" x="573287.6259" y="4264563.7917" z="0.0000" type="priority" />
	<node id="4944374644" x="573285.1727" y="4264534.6164" z="0.0000" type="priority" />
	<node id="4944374643" x="573284.3304" y="4264591.4829" z="0.0000" type="priority" />
	<node id="2592943294" x="576827.2343" y="4266790.6461" z="0.0000" type="priority" />
	<node id="1027146264" x="572491.6499" y="4266269.2825" z="0.0000" type="priority" />
	<node id="2590665958" x="572817.1034" y="4265531.3923" z="0.0000" type="priority" />
	<node id="2590665959" x="576842.5931" y="4266801.2806" z="0.0000" type="priority" />
	<node id="370927355" x="576677.5427" y="4266753.1561" z="0.0000" type="priority" />
	<node id="1027147116" x="572430.9278" y="4266205.6557" z="0.0000" type="priority" />
	<node id="2590665960" x="576731.5097" y="4266746.5814" z="0.0000" type="priority" />
	<node id="2590665961" x="577685.3549" y="4267583.4210" z="0.0000" type="priority" />
	<node id="2590665962" x="577844.8381" y="4267541.2226" z="0.0000" type="priority" />
	<node id="2590665963" x="577977.2021" y="4267592.2496" z="0.0000" type="priority" />
	<node id="2590665964" x="577938.8306" y="4267566.4737" z="0.0000" type="priority" />
	<node id="2590665965" x="578258.0273" y="4267791.7382" z="0.0000" type="priority" />
	<node id="6176399873" x="572409.6385" y="4265974.7705" z="0.0000" type="priority" />
	<node id="2318332099" x="576063.6378" y="4264395.5747" z="0.0000" type="priority" />
	<node id="4944374649" x="573241.6683" y="4264171.4116" z="0.0000" type="priority" />
	<node id="370927325" x="577766.3816" y="4267557.3955" z="0.0000" type="priority" />
	<node id="370927328" x="577600.9841" y="4267588.5958" z="0.0000" type="priority" />
	<node id="1027147102" x="572657.0339" y="4266137.1120" z="0.0000" type="priority" />
	<node id="3997888166" x="574617.1308" y="4266470.2810" z="0.0000" type="priority" />
	<node id="1027146135" x="572847.9253" y="4266239.9426" z="0.0000" type="priority" />
	<node id="1027147103" x="572520.7971" y="4266077.4057" z="0.0000" type="priority" />
	<node id="370927322" x="577787.3439" y="4267551.5952" z="0.0000" type="priority" />
	<node id="2590665975" x="578248.0704" y="4267778.9009" z="0.0000" type="priority" />
	<node id="5256946544" x="577980.2609" y="4270703.2479" z="0.0000" type="priority" />
	<node id="1027146483" x="573003.2513" y="4265943.9231" z="0.0000" type="priority" />
	<node id="2591883575" x="572421.8173" y="4266323.5943" z="0.0000" type="priority" />
	<node id="370927337" x="577254.1013" y="4267371.4698" z="0.0000" type="priority" />
	<node id="2589088106" x="572533.4978" y="4266037.7365" z="0.0000" type="priority" />
	<node id="370927332" x="577520.4518" y="4267578.0501" z="0.0000" type="priority" />
	<node id="2589088109" x="572521.0999" y="4266292.4207" z="0.0000" type="priority" />
	<node id="370927335" x="577451.5834" y="4267540.9283" z="0.0000" type="priority" />
	<node id="1027146493" x="572624.6100" y="4265853.5124" z="0.0000" type="priority" />
	<node id="3997888180" x="575031.2968" y="4266573.1161" z="0.0000" type="priority" />
	<node id="6289874607" x="574439.2516" y="4266294.3740" z="0.0000" type="priority" />
	<node id="1027146475" x="572518.3438" y="4266233.8902" z="0.0000" type="priority" />
	<node id="6153938110" x="578231.2039" y="4267760.6248" z="0.0000" type="priority" />
	<node id="370927387" x="575795.3728" y="4266678.7538" z="0.0000" type="priority" />
	<node id="370927152" x="581517.0691" y="4273040.2174" z="0.0000" type="priority" />
	<node id="370927273" x="577945.2336" y="4270618.3202" z="0.0000" type="priority" />
	<node id="370927153" x="581416.6654" y="4272992.5170" z="0.0000" type="priority" />
	<node id="370927395" x="575474.8987" y="4266572.6659" z="0.0000" type="priority" />
	<node id="370927275" x="577954.2234" y="4270463.6286" z="0.0000" type="priority" />
	<node id="2587104912" x="572499.4833" y="4266317.6715" z="0.0000" type="priority" />
	<node id="370927155" x="581320.6221" y="4272935.5400" z="0.0000" type="priority" />
	<node id="370927270" x="578043.8461" y="4270857.4152" z="0.0000" type="priority" />
	<node id="370927391" x="575613.3581" y="4266592.3488" z="0.0000" type="priority" />
	<node id="2587104914" x="572457.4360" y="4266260.1950" z="0.0000" type="priority" />
	<node id="1027146107" x="572929.2021" y="4266084.4746" z="0.0000" type="priority" />
	<node id="6153938120" x="578210.0604" y="4267743.0505" z="0.0000" type="priority" />
	<node id="1027146585" x="572678.7792" y="4266112.1958" z="0.0000" type="priority" />
	<node id="370927156" x="580932.1301" y="4272701.9403" z="0.0000" type="priority" />
	<node id="370927157" x="580806.3567" y="4272627.6670" z="0.0000" type="priority" />
	<node id="370927278" x="578056.2451" y="4269969.3122" z="0.0000" type="priority" />
	<node id="6289874614" x="574369.1498" y="4266225.0408" z="0.0000" type="priority" />
	<node id="370927159" x="580630.6284" y="4272552.2372" z="0.0000" type="priority" />
	<node id="1027146468" x="572369.2791" y="4265953.0657" z="0.0000" type="priority" />
	<node id="6086122295" x="582373.4333" y="4273299.7503" z="0.0000" type="priority" />
	<node id="370927281" x="578094.0134" y="4269738.6940" z="0.0000" type="priority" />
	<node id="2589472193" x="572956.1837" y="4266255.1877" z="0.0000" type="priority" />
	<node id="1027146219" x="572530.7967" y="4266263.9437" z="0.0000" type="priority" />
	<node id="1027146213" x="572733.2920" y="4266141.5214" z="0.0000" type="priority" />
	<node id="1027146334" x="572419.6134" y="4266233.7742" z="0.0000" type="priority" />
	<node id="1027146697" x="572674.4846" y="4266355.0681" z="0.0000" type="priority" />
	<node id="2590581256" x="573185.2623" y="4265911.1700" z="0.0000" type="priority" />
	<node id="370927375" x="575990.7128" y="4266806.1394" z="0.0000" type="priority" />
	<node id="370927370" x="576194.4889" y="4266812.8467" z="0.0000" type="priority" />
	<node id="2590719311" x="572331.0237" y="4266464.9209" z="0.0000" type="priority" />
	<node id="2588082079" x="572814.9385" y="4265533.6587" z="0.0000" type="priority" />
	<node id="5290597330" x="573238.2257" y="4263220.4340" z="0.0000" type="priority" />
	<node id="2587274405" x="573096.1771" y="4266518.6624" z="0.0000" type="priority" />
	<node id="1027146208" x="572504.9030" y="4266190.6774" z="0.0000" type="priority" />
	<node id="2587274407" x="573502.8923" y="4266301.8436" z="0.0000" type="priority" />
	<node id="2587274401" x="573131.1170" y="4266643.7608" z="0.0000" type="priority" />
	<node id="2587274403" x="573086.2417" y="4266525.3301" z="0.0000" type="priority" />
	<node id="6153938101" x="578267.7801" y="4267804.9509" z="0.0000" type="priority" />
	<node id="6153938102" x="578238.0875" y="4267767.8278" z="0.0000" type="priority" />
	<node id="370927379" x="575973.9529" y="4266798.8447" z="0.0000" type="priority" />
	<node id="1027146688" x="572387.6026" y="4266273.1249" z="0.0000" type="priority" />
	<node id="6153938103" x="578227.4775" y="4267756.7153" z="0.0000" type="priority" />
	<node id="370927262" x="578303.9188" y="4271402.8883" z="0.0000" type="priority" />
	<node id="6153938104" x="578201.4321" y="4267736.9292" z="0.0000" type="priority" />
	<node id="6153938105" x="578215.7896" y="4267747.1127" z="0.0000" type="priority" />
	<node id="370927265" x="578197.6476" y="4271185.1554" z="0.0000" type="priority" />
	<node id="370927260" x="578376.0850" y="4271477.4169" z="0.0000" type="priority" />
	<node id="370927382" x="575901.5043" y="4266748.1526" z="0.0000" type="priority" />
	<node id="2589472191" x="573104.7290" y="4266331.1939" z="0.0000" type="priority" />
	<node id="2587274409" x="572896.9126" y="4266145.4940" z="0.0000" type="priority" />
	<node id="2589472192" x="573006.2253" y="4266281.4449" z="0.0000" type="priority" />
	<node id="2589472190" x="573268.0788" y="4266413.9302" z="0.0000" type="priority" />
	<node id="372744375" x="574284.7776" y="4265145.8297" z="0.0000" type="priority" />
	<node id="2590593173" x="573163.2897" y="4265899.6390" z="0.0000" type="priority" />
	<node id="2590593175" x="573180.9487" y="4265863.3452" z="0.0000" type="priority" />
	<node id="5840596903" x="573257.8251" y="4264041.3646" z="0.0000" type="priority" />
	<node id="370927189" x="578856.9864" y="4271798.8606" z="0.0000" type="priority" />
	<node id="372744373" x="574734.2894" y="4264733.8754" z="0.0000" type="priority" />
	<node id="372744371" x="574776.2968" y="4264709.7639" z="0.0000" type="priority" />
	<node id="370927075" x="582172.2786" y="4273262.4668" z="0.0000" type="priority" />
	<node id="2589490399" x="573446.1830" y="4266411.7654" z="0.0000" type="priority" />
	<node id="370927078" x="582019.2353" y="4273226.1369" z="0.0000" type="priority" />
	<node id="370927072" x="582384.1769" y="4273303.3790" z="0.0000" type="priority" />
	<node id="370927190" x="578737.6959" y="4271669.6844" z="0.0000" type="priority" />
	<node id="370927191" x="578563.8991" y="4271574.5107" z="0.0000" type="priority" />
	<node id="2590614529" x="573023.7031" y="4265902.3609" z="0.0000" type="priority" />
	<node id="5694896384" x="573207.8709" y="4262182.2200" z="0.0000" type="priority" />
	<node id="371585803" x="573308.0864" y="4261713.1285" z="0.0000" type="priority" />
	<node id="1027147079" x="572482.6211" y="4266258.6139" z="0.0000" type="priority" />
	<node id="372736614" x="576977.2437" y="4267106.0251" z="0.0000" type="priority" />
	<node id="372736970" x="578361.6889" y="4264444.1615" z="0.0000" type="priority" />
	<node id="2589347381" x="572412.9763" y="4266235.2345" z="0.0000" type="priority" />
	<node id="2590593156" x="573130.9070" y="4265787.2039" z="0.0000" type="priority" />
	<node id="372744356" x="575907.2975" y="4264474.2281" z="0.0000" type="priority" />
	<node id="372744359" x="575671.7712" y="4264639.5071" z="0.0000" type="priority" />
	<node id="2590593154" x="573091.3957" y="4265771.0408" z="0.0000" type="priority" />
	<node id="370927174" x="580381.9547" y="4272495.2769" z="0.0000" type="priority" />
	<node id="370927175" x="580126.5486" y="4272490.1502" z="0.0000" type="priority" />
	<node id="370927296" x="578098.7059" y="4269257.7121" z="0.0000" type="priority" />
	<node id="1587734612" x="575994.1180" y="4264418.0538" z="0.0000" type="priority" />
	<node id="370927176" x="579742.3713" y="4272498.7508" z="0.0000" type="priority" />
	<node id="370927291" x="578075.0422" y="4269383.6948" z="0.0000" type="priority" />
	<node id="372744366" x="575523.2111" y="4264781.5745" z="0.0000" type="priority" />
	<node id="372744368" x="575282.2554" y="4264706.2314" z="0.0000" type="priority" />
	<node id="2590625645" x="572656.7034" y="4265789.0166" z="0.0000" type="priority" />
	<node id="1027146088" x="572341.4346" y="4266278.0791" z="0.0000" type="priority" />
	<node id="1027147056" x="572499.9398" y="4266145.8322" z="0.0000" type="priority" />
	<node id="1027147058" x="572433.5941" y="4266229.8389" z="0.0000" type="priority" />
	<node id="370927178" x="579457.1186" y="4272417.4505" z="0.0000" type="priority" />
	<node id="370927179" x="579195.7908" y="4272311.8047" z="0.0000" type="priority" />
	<node id="372744361" x="575595.6622" y="4264729.6997" z="0.0000" type="priority" />
	<node id="1027147180" x="572757.5317" y="4266413.0622" z="0.0000" type="priority" />
	<node id="370927181" x="578974.1660" y="4272045.2874" z="0.0000" type="priority" />
	<node id="370927180" x="579066.1193" y="4272196.2261" z="0.0000" type="priority" />
	<node id="372744333" x="577013.3226" y="4264443.8589" z="0.0000" type="priority" />
	<node id="372744337" x="576977.4911" y="4264450.3509" z="0.0000" type="priority" />
	<node id="5256946372" x="578840.3264" y="4271771.2628" z="0.0000" type="priority" />
	<node id="2589267286" x="572531.1952" y="4266269.9843" z="0.0000" type="priority" />
	<node id="372744330" x="577135.2806" y="4264455.1522" z="0.0000" type="priority" />
	<node id="1027146082" x="572548.7738" y="4265996.6701" z="0.0000" type="priority" />
	<node id="6289874570" x="573249.0272" y="4264667.5215" z="0.0000" type="priority" />
	<node id="372744339" x="576888.1628" y="4264486.4041" z="0.0000" type="priority" />
	<node id="2587186103" x="573534.7884" y="4266098.9422" z="0.0000" type="priority" />
	<node id="372744345" x="576817.7277" y="4264474.1210" z="0.0000" type="priority" />
	<node id="2587186102" x="573577.4698" y="4266154.0221" z="0.0000" type="priority" />
	<node id="2587186101" x="573565.5507" y="4266175.4084" z="0.0000" type="priority" />
	<node id="2587186100" x="573548.5466" y="4266213.3499" z="0.0000" type="priority" />
	<node id="372744349" x="576536.0717" y="4264394.9434" z="0.0000" type="priority" />
	<node id="372744346" x="576625.6641" y="4264416.9288" z="0.0000" type="priority" />
	<node id="1027147037" x="572745.8012" y="4266301.6375" z="0.0000" type="priority" />
	<node id="2587186107" x="572718.9371" y="4265666.9991" z="0.0000" type="priority" />
	<node id="2587186106" x="573053.4173" y="4265841.9954" z="0.0000" type="priority" />
	<node id="2587186105" x="573435.9773" y="4266042.7375" z="0.0000" type="priority" />
	<node id="2587186104" x="573501.7045" y="4266074.0578" z="0.0000" type="priority" />
	<node id="2589267284" x="572530.8906" y="4266280.5241" z="0.0000" type="priority" />
	<node id="1027147040" x="572852.8351" y="4265971.1856" z="0.0000" type="priority" />
	<node id="2591874289" x="572726.5387" y="4266207.6229" z="0.0000" type="priority" />
	<node id="372744311" x="573407.3256" y="4265796.5559" z="0.0000" type="priority" />
	<node id="4944374659" x="573235.0926" y="4263184.4721" z="0.0000" type="priority" />
	<node id="4944374658" x="573261.4560" y="4263493.1090" z="0.0000" type="priority" />
	<node id="4944374657" x="573260.4175" y="4263469.3512" z="0.0000" type="priority" />
	<node id="4944374656" x="573260.0982" y="4263518.6317" z="0.0000" type="priority" />
	<node id="4944374655" x="573256.8495" y="4263541.1630" z="0.0000" type="priority" />
	<node id="4944374654" x="573241.5360" y="4263631.3004" z="0.0000" type="priority" />
	<node id="4944374653" x="573244.4542" y="4263676.4379" z="0.0000" type="priority" />
	<node id="4944374652" x="573274.4163" y="4263895.3191" z="0.0000" type="priority" />
	<node id="4944374651" x="573273.4036" y="4263911.6896" z="0.0000" type="priority" />
	<node id="4944374650" x="573271.9876" y="4263927.3573" z="0.0000" type="priority" />
	<node id="2590593194" x="573097.1183" y="4265773.3790" z="0.0000" type="priority" />
	<node id="2590631155" x="572631.3784" y="4265858.7562" z="0.0000" type="priority" />
	<node id="1027147147" x="572361.9592" y="4266288.7847" z="0.0000" type="priority" />
	<node id="6176399881" x="572352.1394" y="4265712.1418" z="0.0000" type="priority" />
	<node id="1027146184" x="572402.7325" y="4266237.4835" z="0.0000" type="priority" />
	<node id="372744322" x="577745.2479" y="4264483.0611" z="0.0000" type="priority" />
	<node id="6242416801" x="578427.6290" y="4268284.1236" z="0.0000" type="priority" />
	<node id="4944374667" x="573150.2628" y="4262498.1691" z="0.0000" type="priority" />
	<node id="6242416802" x="578445.6262" y="4268348.6995" z="0.0000" type="priority" />
	<node id="4944374666" x="573148.0100" y="4262533.8932" z="0.0000" type="priority" />
	<node id="6242416803" x="578454.6451" y="4268450.9528" z="0.0000" type="priority" />
	<node id="4944374665" x="573163.7487" y="4262877.1784" z="0.0000" type="priority" />
	<node id="6242416804" x="578433.4217" y="4268594.7813" z="0.0000" type="priority" />
	<node id="4944374664" x="573159.7892" y="4262842.8514" z="0.0000" type="priority" />
	<node id="6242416805" x="578411.4771" y="4268658.4111" z="0.0000" type="priority" />
	<node id="4944374663" x="573229.1536" y="4263121.5845" z="0.0000" type="priority" />
	<node id="4944374662" x="573231.3871" y="4263136.7084" z="0.0000" type="priority" />
	<node id="1027147012" x="572590.5072" y="4266212.0381" z="0.0000" type="priority" />
	<node id="4944374661" x="573224.2565" y="4263104.0614" z="0.0000" type="priority" />
	<node id="1027146166" x="572510.1633" y="4266284.5425" z="0.0000" type="priority" />
	<node id="4944374660" x="573219.4000" y="4263087.8149" z="0.0000" type="priority" />
	<node id="1027147135" x="572524.7760" y="4266100.9904" z="0.0000" type="priority" />
	<node id="1027146169" x="572513.5470" y="4266095.5398" z="0.0000" type="priority" />
	<node id="1027146291" x="572390.6184" y="4266418.7723" z="0.0000" type="priority" />
	<node id="1027147020" x="572442.7475" y="4266219.0240" z="0.0000" type="priority" />
	<node id="372744328" x="577550.1658" y="4264459.1544" z="0.0000" type="priority" />
	<node id="1606598982" x="578116.2478" y="4271004.9440" z="0.0000" type="priority" />
	<node id="371585656" x="573274.7542" y="4264623.4336" z="0.0000" type="priority" />
	<node id="1027146834" x="573062.1516" y="4266309.3875" z="0.0000" type="priority" />
	<node id="2587095480" x="572777.3818" y="4265505.5408" z="0.0000" type="priority" />
	<node id="371585775" x="573151.0029" y="4262605.3875" z="0.0000" type="priority" />
	<node id="2487329172" x="578210.9350" y="4271212.3747" z="0.0000" type="priority" />
	<node id="1027146952" x="572226.1772" y="4265878.8981" z="0.0000" type="priority" />
	<node id="2487321324" x="582392.4483" y="4273308.6026" z="0.0000" type="priority" />
	<node id="2589278651" x="572677.3041" y="4266469.8964" z="0.0000" type="priority" />
	<node id="2589278650" x="572890.5895" y="4266157.4439" z="0.0000" type="priority" />
	<node id="371585651" x="573090.8362" y="4264895.5942" z="0.0000" type="priority" />
	<node id="2487321209" x="582098.5061" y="4273249.2461" z="0.0000" type="priority" />
	<node id="2589278652" x="572633.5864" y="4266394.0598" z="0.0000" type="priority" />
	<node id="2589492170" x="573077.8122" y="4266084.9517" z="0.0000" type="priority" />
	<node id="371585645" x="573052.7526" y="4264969.0670" z="0.0000" type="priority" />
	<node id="2487329188" x="578294.4320" y="4271383.4411" z="0.0000" type="priority" />
	<node id="1027146702" x="572865.6541" y="4266209.1531" z="0.0000" type="priority" />
	<node id="5256926177" x="581573.9828" y="4273061.2845" z="0.0000" type="priority" />
	<node id="2589278648" x="572451.0578" y="4266222.4172" z="0.0000" type="priority" />
	<node id="2590629180" x="572476.7099" y="4265776.9775" z="0.0000" type="priority" />
	<node id="2487321212" x="580457.5276" y="4272505.3257" z="0.0000" type="priority" />
	<node id="2589278649" x="572782.2166" y="4266102.8362" z="0.0000" type="priority" />
	<node id="371585641" x="573039.0966" y="4265030.8550" z="0.0000" type="priority" />
	<node id="2487329157" x="578332.4784" y="4271432.3881" z="0.0000" type="priority" />
	<node id="2589425481" x="572501.9346" y="4266180.6296" z="0.0000" type="priority" />
	<node id="2587129240" x="572639.4802" y="4266507.2625" z="0.0000" type="priority" />
	<node id="2587941024" x="574671.2782" y="4266515.3973" z="0.0000" type="priority" />
	<node id="2587941022" x="574716.7290" y="4266539.7361" z="0.0000" type="priority" />
	<node id="2487321305" x="580709.5771" y="4272583.2529" z="0.0000" type="priority" />
	<node id="2587129237" x="572683.1262" y="4266631.2835" z="0.0000" type="priority" />
	<node id="2587129238" x="572657.1613" y="4266576.7373" z="0.0000" type="priority" />
	<node id="2587129239" x="572645.8321" y="4266524.7541" z="0.0000" type="priority" />
	<node id="371585670" x="573240.9254" y="4264184.9769" z="0.0000" type="priority" />
	<node id="2590666021" x="577925.7827" y="4267561.3528" z="0.0000" type="priority" />
	<node id="2592930513" x="575707.2382" y="4266631.3442" z="0.0000" type="priority" />
	<node id="371585796" x="573291.4261" y="4261775.6209" z="0.0000" type="priority" />
	<node id="5823442568" x="576855.2090" y="4266821.6657" z="0.0000" type="priority" />
	<node id="371585675" x="573272.6989" y="4263874.3183" z="0.0000" type="priority" />
	<node id="371585789" x="573244.4542" y="4262001.4117" z="0.0000" type="priority" />
	<node id="2589425493" x="572499.5261" y="4266153.9851" z="0.0000" type="priority" />
	<node id="2587129234" x="572714.3247" y="4266787.0859" z="0.0000" type="priority" />
	<node id="2587129235" x="572717.1600" y="4266737.7947" z="0.0000" type="priority" />
	<node id="2587129236" x="572720.2708" y="4266709.0473" z="0.0000" type="priority" />
	<node id="2487329043" x="578179.1203" y="4271144.1459" z="0.0000" type="priority" />
	<node id="5706729382" x="573191.8802" y="4265761.0602" z="0.0000" type="priority" />
	<node id="5706729380" x="573410.2384" y="4265763.0684" z="0.0000" type="priority" />
	<node id="5706729387" x="573337.6699" y="4265784.6654" z="0.0000" type="priority" />
	<node id="5706729385" x="573397.8730" y="4265784.6395" z="0.0000" type="priority" />
	<node id="371585783" x="573166.0747" y="4262388.8378" z="0.0000" type="priority" />
	<node id="371585662" x="573281.5430" y="4264494.9100" z="0.0000" type="priority" />
	<node id="2590629137" x="572464.6155" y="4265770.7868" z="0.0000" type="priority" />
	<node id="2590629138" x="572472.0357" y="4265774.3385" z="0.0000" type="priority" />
	<node id="1027146912" x="572959.8247" y="4266025.6707" z="0.0000" type="priority" />
	<node id="2487329259" x="578222.3522" y="4271235.7693" z="0.0000" type="priority" />
	<node id="371585735" x="573205.0683" y="4263036.8914" z="0.0000" type="priority" />
	<node id="2588857746" x="573150.0669" y="4266749.4038" z="0.0000" type="priority" />
	<node id="1027146917" x="572452.8465" y="4266365.8230" z="0.0000" type="priority" />
	<node id="1027146900" x="572632.6600" y="4266496.2586" z="0.0000" type="priority" />
	<node id="2590649096" x="572442.1203" y="4266111.9727" z="0.0000" type="priority" />
	<node id="2589444294" x="572692.5832" y="4266387.1817" z="0.0000" type="priority" />
	<node id="2589618699" x="573155.0715" y="4266744.4002" z="0.0000" type="priority" />
	<node id="2587125051" x="572541.1391" y="4266332.6305" z="0.0000" type="priority" />
	<node id="2587125049" x="572559.1262" y="4266368.4604" z="0.0000" type="priority" />
	<node id="1027146909" x="572497.9646" y="4266276.4863" z="0.0000" type="priority" />
	<node id="2590629142" x="572480.1175" y="4265778.9504" z="0.0000" type="priority" />
	<node id="2590629143" x="572488.9430" y="4265783.2472" z="0.0000" type="priority" />
	<node id="371585636" x="572932.2817" y="4265258.4890" z="0.0000" type="priority" />
	<node id="2587186084" x="572849.5702" y="4266798.0913" z="0.0000" type="priority" />
	<node id="2587186083" x="572784.8812" y="4266751.7043" z="0.0000" type="priority" />
	<node id="2587186082" x="572755.4962" y="4266714.9602" z="0.0000" type="priority" />
	<node id="2587186081" x="572861.3069" y="4266440.8943" z="0.0000" type="priority" />
	<node id="371585630" x="572827.1315" y="4265461.8583" z="0.0000" type="priority" />
	<node id="2587186080" x="572768.2538" y="4266392.6849" z="0.0000" type="priority" />
	<node id="2587186089" x="572803.7290" y="4266475.8050" z="0.0000" type="priority" />
	<node id="2587186088" x="572760.7994" y="4266503.3472" z="0.0000" type="priority" />
	<node id="2587186087" x="572964.0800" y="4266872.4985" z="0.0000" type="priority" />
	<node id="2587186086" x="572912.4433" y="4266821.7681" z="0.0000" type="priority" />
	<node id="2587186085" x="572869.8592" y="4266804.7679" z="0.0000" type="priority" />
	<node id="1027147099" x="573176.0576" y="4266138.3946" z="0.0000" type="priority" />
	<node id="6153529396" x="576976.4862" y="4267104.1423" z="0.0000" type="priority" />
	<node id="2587125069" x="572390.3083" y="4266147.2715" z="0.0000" type="priority" />
	<node id="5768910934" x="580464.0362" y="4272506.7785" z="0.0000" type="priority" />
	<node id="5768910933" x="579970.9419" y="4272493.6311" z="0.0000" type="priority" />
	<node id="2587186095" x="573248.4883" y="4266642.5136" z="0.0000" type="priority" />
	<node id="2587186094" x="573219.1557" y="4266680.3319" z="0.0000" type="priority" />
	<node id="2590666073" x="577614.5780" y="4267587.7621" z="0.0000" type="priority" />
	<node id="2587186093" x="572854.7493" y="4266641.6092" z="0.0000" type="priority" />
	<node id="371585741" x="573168.8866" y="4262900.8293" z="0.0000" type="priority" />
	<node id="2587186091" x="572847.8256" y="4266639.1492" z="0.0000" type="priority" />
	<node id="2587186090" x="572840.1364" y="4266634.6182" z="0.0000" type="priority" />
	<node id="2587186099" x="573407.8511" y="4266486.0777" z="0.0000" type="priority" />
	<node id="2587186098" x="573404.0798" y="4266493.4118" z="0.0000" type="priority" />
	<node id="2587186097" x="573317.0455" y="4266566.9567" z="0.0000" type="priority" />
	<node id="6363406683" x="578450.7822" y="4268488.5915" z="0.0000" type="priority" />
	<node id="2587186096" x="573260.4003" y="4266621.7371" z="0.0000" type="priority" />
	<node id="2587274397" x="573089.2729" y="4266599.0891" z="0.0000" type="priority" />
	<node id="2587274399" x="573125.9642" y="4266634.4363" z="0.0000" type="priority" />
	<node id="1027146432" x="572765.3497" y="4266510.9237" z="0.0000" type="priority" />
	<node id="1027146797" x="572390.4395" y="4266244.6634" z="0.0000" type="priority" />
	<node id="2587274395" x="573081.0626" y="4266552.3162" z="0.0000" type="priority" />
	<node id="2588331370" x="572713.6167" y="4266695.1262" z="0.0000" type="priority" />
	<node id="1027146305" x="572895.3135" y="4265889.1514" z="0.0000" type="priority" />
	<node id="1027146664" x="573111.2407" y="4265733.9789" z="0.0000" type="priority" />
	<node id="2589418664" x="572484.3719" y="4266260.6605" z="0.0000" type="priority" />
	<node id="1027146423" x="572497.2438" y="4266071.9657" z="0.0000" type="priority" />
	<node id="2588082086" x="572809.4043" y="4265495.2003" z="0.0000" type="priority" />
	<node id="2588082085" x="572788.0512" y="4265494.9398" z="0.0000" type="priority" />
	<node id="2588082084" x="572778.2444" y="4265503.6621" z="0.0000" type="priority" />
	<node id="2588082083" x="572775.5948" y="4265509.3976" z="0.0000" type="priority" />
	<node id="2588082082" x="572775.2862" y="4265522.2567" z="0.0000" type="priority" />
	<node id="2588082081" x="572782.1373" y="4265533.7825" z="0.0000" type="priority" />
	<node id="2589487895" x="573303.8787" y="4266432.4130" z="0.0000" type="priority" />
	<node id="4559937546" x="572487.9053" y="4266329.6296" z="0.0000" type="priority" />
	<node id="1027146536" x="572724.1303" y="4266442.2559" z="0.0000" type="priority" />
	<node id="1027146416" x="572780.6343" y="4266369.1598" z="0.0000" type="priority" />
	<node id="1804764973" x="575559.2233" y="4264770.3947" z="0.0000" type="priority" />
	<node id="1804764972" x="575370.1219" y="4264734.6342" z="0.0000" type="priority" />
	<node id="2587125040" x="572593.5460" y="4266433.6365" z="0.0000" type="priority" />
	<node id="6242416794" x="581950.9416" y="4273200.8437" z="0.0000" type="priority" />
	<node id="2587765659" x="575159.7491" y="4266573.5654" z="0.0000" type="priority" />
	<node id="2318332101" x="575969.9701" y="4264429.9767" z="0.0000" type="priority" />
	<node id="2318332102" x="576029.6786" y="4264405.1072" z="0.0000" type="priority" />
	<node id="2592943310" x="576949.9068" y="4267037.7898" z="0.0000" type="priority" />
	<node id="6363406777" x="573910.8367" y="4265871.9743" z="0.0000" type="priority" />
	<node id="2590847442" x="576828.2587" y="4264475.9531" z="0.0000" type="priority" />
	<node id="1027146521" x="572350.7417" y="4266272.4257" z="0.0000" type="priority" />
	<node id="2587765648" x="575143.9169" y="4266573.1727" z="0.0000" type="priority" />
	<node id="1027146765" x="572747.2500" y="4266427.1736" z="0.0000" type="priority" />
	<node id="2592943313" x="577120.3246" y="4267252.7240" z="0.0000" type="priority" />
	<node id="6363406778" x="574060.3855" y="4265935.4673" z="0.0000" type="priority" />
	<node id="2318332114" x="575543.6828" y="4264780.3025" z="0.0000" type="priority" />
	<node id="1106504811" x="582400.2844" y="4273315.4974" z="0.0000" type="priority" />
	<node id="370927308" x="578451.0864" y="4268401.5112" z="0.0000" type="priority" />
	<node id="370927303" x="578348.3155" y="4268776.7485" z="0.0000" type="priority" />
	<node id="370927424" x="573832.0475" y="4265857.2764" z="0.0000" type="priority" />
	<node id="370927305" x="578446.0424" y="4268534.8111" z="0.0000" type="priority" />
	<node id="2318321152" x="578814.0727" y="4271738.7652" z="0.0000" type="priority" />
	<node id="2318321151" x="580521.6481" y="4272519.6769" z="0.0000" type="priority" />
	<node id="370927300" x="578106.3897" y="4269236.3575" z="0.0000" type="priority" />
	<node id="2318321150" x="579688.6305" y="4272490.5466" z="0.0000" type="priority" />
	<node id="2587774390" x="572787.8023" y="4265537.7069" z="0.0000" type="priority" />
	<node id="370927422" x="573985.0655" y="4265894.3991" z="0.0000" type="priority" />
	<node id="2587774392" x="572777.8278" y="4265528.4166" z="0.0000" type="priority" />