<?xml version="1.0" encoding="UTF-8"?>

<!-- generated on Tue Jul 14 15:53:57 2020 by Eclipse SUMO netconvert Version 1.2.0
<configuration xmlns:xsi="http://www.w3.org/2001/XMLSchema-instance" xsi:noNamespaceSchemaLocation="http://sumo.dlr.de/xsd/netconvertConfiguration.xsd">

    <input>
        <node-files value="/home/vsimrti/scenarios/ids/sumo/gualtar17/gualtar17.nod.xml"/>
        <edge-files value="/home/vsimrti/scenarios/ids/sumo/gualtar17/gualtar17.edg.xml"/>
        <connection-files value="/home/vsimrti/scenarios/ids/sumo/gualtar17/gualtar17.con.xml"/>
    </input>

    <output>
        <output-file value="/home/vsimrti/scenarios/ids/sumo/gualtar17/gualtar17.net.xml"/>
    </output>

</configuration>
-->

<net version="1.1" junctionCornerDetail="5" limitTurnSpeed="5.50" xmlns:xsi="http://www.w3.org/2001/XMLSchema-instance" xsi:noNamespaceSchemaLocation="http://sumo.dlr.de/xsd/net_file.xsd">

    <location netOffset="-572226.18,-4261713.13" convBoundary="0.00,0.00,10174.11,11602.37" origBoundary="572226.18,4261713.13,582400.28,4273315.50" projParameter="!"/>

    <edge id=":1027146082_0" function="internal">
        <lane id=":1027146082_0_0" index="0" speed="13.89" length="0.21" shape="324.11,4284.11 324.08,4284.16 324.06,4284.20 324.04,4284.24 324.02,4284.30"/>
    </edge>
    <edge id=":1027146082_1" function="internal">
        <lane id=":1027146082_1_0" index="0" speed="13.89" length="0.63" shape="321.02,4283.18 321.09,4283.01 321.14,4282.89 321.19,4282.77 321.28,4282.61"/>
    </edge>
    <edge id=":1027146088_0" function="internal">
        <lane id=":1027146088_0_0" index="0" speed="3.65" length="4.67" shape="116.09,4566.32 114.65,4566.26 113.89,4565.78 113.82,4564.89 114.43,4563.58"/>
    </edge>
    <edge id=":1027146107_0" function="internal">
        <lane id=":1027146107_0_0" index="0" speed="13.89" length="0.31" shape="704.51,4371.95 704.37,4372.23"/>
    </edge>
    <edge id=":1027146107_1" function="internal">
        <lane id=":1027146107_1_0" index="0" speed="13.89" length="0.29" shape="701.54,4370.73 701.67,4370.48"/>
    </edge>
    <edge id=":1027146135_0" function="internal">
        <lane id=":1027146135_0_0" index="0" speed="13.89" length="0.15" shape="623.19,4527.52 623.12,4527.65"/>
    </edge>
    <edge id=":1027146135_1" function="internal">
        <lane id=":1027146135_1_0" index="0" speed="13.89" length="0.28" shape="620.28,4526.17 620.42,4525.92"/>
    </edge>
    <edge id=":1027146166_0" function="internal">
        <lane id=":1027146166_0_0" index="0" speed="13.89" length="0.24" shape="281.33,4575.42 281.19,4575.32"/>
        <lane id=":1027146166_0_1" index="1" speed="13.89" length="0.24" shape="283.20,4572.82 282.95,4572.65"/>
    </edge>
    <edge id=":1027146169_0" function="internal">
        <lane id=":1027146169_0_0" index="0" speed="6.14" length="9.06" shape="293.75,4387.29 291.31,4386.51 289.36,4386.77 287.87,4388.08 286.86,4390.42"/>
    </edge>
    <edge id=":1027146169_1" function="internal">
        <lane id=":1027146169_1_0" index="0" speed="8.34" length="14.66" shape="293.75,4387.29 290.26,4385.01 288.22,4382.26 287.63,4379.03 288.47,4375.34"/>
    </edge>
    <edge id=":1027146169_2" function="internal">
        <lane id=":1027146169_2_0" index="0" speed="3.65" length="4.67" shape="293.75,4387.29 293.02,4386.04 293.01,4385.15 293.71,4384.60 295.14,4384.41"/>
    </edge>
    <edge id=":1027146169_3" function="internal">
        <lane id=":1027146169_3_0" index="0" speed="6.91" length="9.76" shape="291.45,4376.53 290.91,4378.93 291.35,4381.04 292.76,4382.87 295.14,4384.41"/>
    </edge>
    <edge id=":1027146169_4" function="internal">
        <lane id=":1027146169_4_0" index="0" speed="13.89" length="14.64" shape="291.45,4376.53 290.13,4379.98 288.95,4383.40 287.87,4386.87 286.86,4390.42"/>
    </edge>
    <edge id=":1027146169_5" function="internal">
        <lane id=":1027146169_5_0" index="0" speed="3.65" length="2.34" shape="291.45,4376.53 290.26,4377.34 289.37,4377.42"/>
    </edge>
    <edge id=":1027146169_9" function="internal">
        <lane id=":1027146169_9_0" index="0" speed="3.65" length="2.34" shape="289.37,4377.42 288.77,4376.75 288.47,4375.34"/>
    </edge>
    <edge id=":1027146169_6" function="internal">
        <lane id=":1027146169_6_0" index="0" speed="13.89" length="15.01" shape="283.77,4389.59 284.80,4385.98 285.92,4382.39 287.14,4378.84 288.47,4375.34"/>
    </edge>
    <edge id=":1027146169_7" function="internal">
        <lane id=":1027146169_7_0" index="0" speed="7.70" length="6.25" shape="283.77,4389.59 285.44,4385.72 286.97,4384.37"/>
    </edge>
    <edge id=":1027146169_8" function="internal">
        <lane id=":1027146169_8_0" index="0" speed="3.65" length="2.34" shape="283.77,4389.59 284.86,4388.64 285.73,4388.46"/>
    </edge>
    <edge id=":1027146169_10" function="internal">
        <lane id=":1027146169_10_0" index="0" speed="7.70" length="8.71" shape="286.97,4384.37 287.89,4383.56 291.13,4383.13 295.14,4384.41"/>
    </edge>
    <edge id=":1027146169_11" function="internal">
        <lane id=":1027146169_11_0" index="0" speed="3.65" length="2.34" shape="285.73,4388.46 286.40,4389.05 286.86,4390.42"/>
    </edge>
    <edge id=":1027146184_0" function="internal">
        <lane id=":1027146184_0_0" index="0" speed="13.89" length="0.50" shape="177.39,4525.81 177.25,4525.84 177.15,4525.87 177.06,4525.92 176.93,4525.99"/>
    </edge>
    <edge id=":1027146184_1" function="internal">
        <lane id=":1027146184_1_0" index="0" speed="12.95" length="1.51" shape="175.31,4523.23 175.70,4523.01 175.98,4522.87 176.27,4522.78 176.70,4522.68"/>
    </edge>
    <edge id=":1027146208_0" function="internal">
        <lane id=":1027146208_0_0" index="0" speed="6.06" length="9.07" shape="279.59,4485.70 278.48,4483.38 276.95,4482.15 274.99,4482.03 272.61,4483.01"/>
    </edge>
    <edge id=":1027146208_1" function="internal">
        <lane id=":1027146208_1_0" index="0" speed="13.89" length="14.56" shape="279.59,4485.70 275.35,4471.77"/>
    </edge>
    <edge id=":1027146208_2" function="internal">
        <lane id=":1027146208_2_0" index="0" speed="3.65" length="2.34" shape="279.59,4485.70 279.99,4484.32 280.64,4483.70"/>
    </edge>
    <edge id=":1027146208_9" function="internal">
        <lane id=":1027146208_9_0" index="0" speed="3.65" length="2.34" shape="280.64,4483.70 281.52,4483.84 282.64,4484.75"/>
    </edge>
    <edge id=":1027146208_3" function="internal">
        <lane id=":1027146208_3_0" index="0" speed="13.89" length="14.51" shape="278.42,4470.86 282.64,4484.75"/>
    </edge>
    <edge id=":1027146208_4" function="internal">
        <lane id=":1027146208_4_0" index="0" speed="8.95" length="5.52" shape="278.42,4470.86 278.88,4474.41 278.40,4476.30"/>
    </edge>
    <edge id=":1027146208_5" function="internal">
        <lane id=":1027146208_5_0" index="0" speed="3.65" length="2.34" shape="278.42,4470.86 277.99,4472.24 277.34,4472.85"/>
    </edge>
    <edge id=":1027146208_10" function="internal">
        <lane id=":1027146208_10_0" index="0" speed="8.95" length="9.11" shape="278.40,4476.30 278.06,4477.62 275.98,4480.48 272.61,4483.01"/>
    </edge>
    <edge id=":1027146208_11" function="internal">
        <lane id=":1027146208_11_0" index="0" speed="3.65" length="2.34" shape="277.34,4472.85 276.46,4472.70 275.35,4471.77"/>
    </edge>
    <edge id=":1027146208_6" function="internal">
        <lane id=":1027146208_6_0" index="0" speed="7.61" length="10.36" shape="270.99,4480.25 273.45,4478.43 275.00,4476.41 275.64,4474.19 275.35,4471.77"/>
    </edge>
    <edge id=":1027146208_7" function="internal">
        <lane id=":1027146208_7_0" index="0" speed="7.65" length="15.15" shape="270.99,4480.25 274.97,4478.62 278.23,4478.82 280.79,4480.87 282.64,4484.75"/>
    </edge>
    <edge id=":1027146208_8" function="internal">
        <lane id=":1027146208_8_0" index="0" speed="3.65" length="4.67" shape="270.99,4480.25 272.43,4480.33 273.18,4480.82 273.24,4481.71 272.61,4483.01"/>
    </edge>
    <edge id=":1027146213_0" function="internal">
        <lane id=":1027146213_0_0" index="0" speed="13.89" length="0.10" shape="506.43,4429.84 506.36,4429.80"/>
    </edge>
    <edge id=":1027146213_1" function="internal">
        <lane id=":1027146213_1_0" index="0" speed="13.89" length="0.10" shape="507.87,4426.98 507.80,4426.95"/>
    </edge>
    <edge id=":1027146219_0" function="internal">
        <lane id=":1027146219_0_0" index="0" speed="13.89" length="0.53" shape="303.06,4551.45 303.05,4551.29 303.03,4551.19 303.00,4551.08 302.94,4550.94"/>
    </edge>
    <edge id=":1027146219_1" function="internal">
        <lane id=":1027146219_1_0" index="0" speed="11.72" length="1.58" shape="305.90,4549.72 306.07,4550.15 306.17,4550.45 306.22,4550.77 306.25,4551.24"/>
    </edge>
    <edge id=":1027146264_0" function="internal">
        <lane id=":1027146264_0_0" index="0" speed="13.89" length="0.28" shape="261.94,4559.40 261.73,4559.17"/>
        <lane id=":1027146264_0_1" index="1" speed="13.89" length="0.28" shape="264.34,4557.29 264.18,4557.10"/>
    </edge>
    <edge id=":1027146291_0" function="internal">
        <lane id=":1027146291_0_0" index="0" speed="13.89" length="0.10" shape="165.48,4706.86 165.42,4706.91"/>
    </edge>
    <edge id=":1027146291_1" function="internal">
        <lane id=":1027146291_1_0" index="0" speed="13.89" length="0.10" shape="163.46,4704.38 163.40,4704.43"/>
    </edge>
    <edge id=":1027146305_0" function="internal">
        <lane id=":1027146305_0_0" index="0" speed="3.90" length="2.61" shape="671.31,4178.92 670.63,4178.69 670.05,4178.73 669.55,4179.05 669.15,4179.64"/>
    </edge>
    <edge id=":1027146305_1" function="internal">
        <lane id=":1027146305_1_0" index="0" speed="6.08" length="7.83" shape="666.27,4178.24 667.48,4176.46 668.96,4175.51 670.72,4175.38 672.76,4176.07"/>
    </edge>
    <edge id=":1027146334_0" function="internal">
        <lane id=":1027146334_0_0" index="0" speed="13.89" length="0.10" shape="193.87,4522.19 193.78,4522.21"/>
    </edge>
    <edge id=":1027146334_1" function="internal">
        <lane id=":1027146334_1_0" index="0" speed="13.89" length="0.10" shape="193.09,4519.08 193.00,4519.11"/>
    </edge>
    <edge id=":1027146416_0" function="internal">
        <lane id=":1027146416_0_0" index="0" speed="13.89" length="15.89" shape="560.55,4647.69 553.23,4661.79"/>
    </edge>
    <edge id=":1027146416_1" function="internal">
        <lane id=":1027146416_1_0" index="0" speed="7.38" length="6.96" shape="560.55,4647.69 557.51,4652.13 556.09,4652.81"/>
    </edge>
    <edge id=":1027146416_2" function="internal">
        <lane id=":1027146416_2_0" index="0" speed="3.65" length="2.34" shape="560.55,4647.69 559.29,4648.39 558.40,4648.38"/>
    </edge>
    <edge id=":1027146416_9" function="internal">
        <lane id=":1027146416_9_0" index="0" speed="7.38" length="10.59" shape="556.09,4652.81 554.46,4653.61 551.41,4652.13 548.35,4647.69"/>
    </edge>
    <edge id=":1027146416_10" function="internal">
        <lane id=":1027146416_10_0" index="0" speed="3.65" length="2.34" shape="558.40,4648.38 557.87,4647.65 557.71,4646.22"/>
    </edge>
    <edge id=":1027146416_3" function="internal">
        <lane id=":1027146416_3_0" index="0" speed="5.58" length="9.36" shape="551.20,4646.22 552.83,4648.59 554.45,4649.38 556.08,4648.59 557.71,4646.22"/>
    </edge>
    <edge id=":1027146416_4" function="internal">
        <lane id=":1027146416_4_0" index="0" speed="11.51" length="16.27" shape="551.20,4646.22 553.22,4650.88 554.24,4655.02 554.24,4658.66 553.23,4661.79"/>
    </edge>
    <edge id=":1027146416_5" function="internal">
        <lane id=":1027146416_5_0" index="0" speed="3.65" length="4.67" shape="551.20,4646.22 551.04,4647.66 550.51,4648.38 549.62,4648.39 548.35,4647.69"/>
    </edge>
    <edge id=":1027146416_6" function="internal">
        <lane id=":1027146416_6_0" index="0" speed="10.41" length="13.21" shape="550.40,4660.30 551.12,4657.91 551.02,4655.01 550.09,4651.60 548.35,4647.69"/>
    </edge>
    <edge id=":1027146416_7" function="internal">
        <lane id=":1027146416_7_0" index="0" speed="13.89" length="15.86" shape="550.40,4660.30 557.71,4646.22"/>
    </edge>
    <edge id=":1027146416_8" function="internal">
        <lane id=":1027146416_8_0" index="0" speed="3.65" length="2.34" shape="550.40,4660.30 551.67,4659.61 552.56,4659.63"/>
    </edge>
    <edge id=":1027146416_11" function="internal">
        <lane id=":1027146416_11_0" index="0" speed="3.65" length="2.34" shape="552.56,4659.63 553.08,4660.36 553.23,4661.79"/>
    </edge>
    <edge id=":1027146423_0" function="internal">
        <lane id=":1027146423_0_0" index="0" speed="4.13" length="1.37" shape="272.13,4360.72 271.78,4360.68 271.45,4360.71 271.13,4360.81 270.83,4360.99"/>
    </edge>
    <edge id=":1027146423_1" function="internal">
        <lane id=":1027146423_1_0" index="0" speed="6.52" length="4.10" shape="268.95,4358.40 269.85,4357.87 270.81,4357.56 271.80,4357.47 272.85,4357.61"/>
    </edge>
    <edge id=":1027146432_0" function="internal">
        <lane id=":1027146432_0_0" index="0" speed="11.11" length="0.30" shape="537.88,4798.75 537.72,4798.49"/>
    </edge>
    <edge id=":1027146432_1" function="internal">
        <lane id=":1027146432_1_0" index="0" speed="11.11" length="0.29" shape="540.47,4796.84 540.62,4797.10"/>
    </edge>
    <edge id=":1027146468_0" function="internal">
        <lane id=":1027146468_0_0" index="0" speed="13.89" length="0.22" shape="142.46,4241.41 142.26,4241.31"/>
    </edge>
    <edge id=":1027146468_1" function="internal">
        <lane id=":1027146468_1_0" index="0" speed="13.89" length="0.31" shape="143.70,4238.45 143.98,4238.59"/>
    </edge>
    <edge id=":1027146475_0" function="internal">
        <lane id=":1027146475_0_0" index="0" speed="13.89" length="12.33" shape="292.08,4524.73 290.86,4521.63 289.93,4518.96 289.08,4516.26 288.10,4513.07"/>
    </edge>
    <edge id=":1027146475_1" function="internal">
        <lane id=":1027146475_1_0" index="0" speed="3.65" length="4.67" shape="292.08,4524.73 292.36,4523.32 292.95,4522.64 293.84,4522.70 295.04,4523.51"/>
    </edge>
    <edge id=":1027146475_2" function="internal">
        <lane id=":1027146475_2_0" index="0" speed="13.89" length="12.04" shape="291.15,4512.12 292.12,4515.26 292.93,4517.87 293.83,4520.45 295.04,4523.51"/>
    </edge>
    <edge id=":1027146475_3" function="internal">
        <lane id=":1027146475_3_0" index="0" speed="3.65" length="4.67" shape="291.15,4512.12 290.75,4513.50 290.10,4514.12 289.22,4513.98 288.10,4513.07"/>
    </edge>
    <edge id=":1027146475_4" function="internal">
        <lane id=":1027146475_4_0" index="0" speed="7.35" length="8.88" shape="284.36,4520.48 286.44,4518.68 287.76,4516.84 288.31,4514.97 288.10,4513.07"/>
    </edge>
    <edge id=":1027146475_5" function="internal">
        <lane id=":1027146475_5_0" index="0" speed="6.48" length="10.52" shape="286.23,4523.07 289.27,4521.30 291.75,4520.79 293.67,4521.52 295.04,4523.51"/>
    </edge>
    <edge id=":1027146483_0" function="internal">
        <lane id=":1027146483_0_0" index="0" speed="13.89" length="14.66" shape="781.71,4225.01 774.88,4237.98"/>
    </edge>
    <edge id=":1027146483_1" function="internal">
        <lane id=":1027146483_1_0" index="0" speed="8.00" length="6.21" shape="781.71,4225.01 779.50,4228.23 777.56,4229.46"/>
    </edge>
    <edge id=":1027146483_2" function="internal">
        <lane id=":1027146483_2_0" index="0" speed="3.65" length="2.34" shape="781.71,4225.01 780.46,4225.73 779.56,4225.73"/>
    </edge>
    <edge id=":1027146483_9" function="internal">
        <lane id=":1027146483_9_0" index="0" speed="8.00" length="8.11" shape="777.56,4229.46 776.78,4229.95 773.55,4230.18 769.81,4228.90"/>
    </edge>
    <edge id=":1027146483_10" function="internal">
        <lane id=":1027146483_10_0" index="0" speed="3.65" length="2.34" shape="779.56,4225.73 779.02,4225.02 778.83,4223.59"/>
    </edge>
    <edge id=":1027146483_3" function="internal">
        <lane id=":1027146483_3_0" index="0" speed="6.51" length="9.11" shape="771.26,4226.05 773.64,4226.86 775.70,4226.73 777.43,4225.64 778.83,4223.59"/>
    </edge>
    <edge id=":1027146483_4" function="internal">
        <lane id=":1027146483_4_0" index="0" speed="7.93" length="14.35" shape="771.26,4226.05 774.49,4228.32 776.18,4231.07 776.31,4234.29 774.88,4237.98"/>
    </edge>
    <edge id=":1027146483_5" function="internal">
        <lane id=":1027146483_5_0" index="0" speed="3.65" length="4.67" shape="771.26,4226.05 771.96,4227.30 771.96,4228.20 771.24,4228.73 769.81,4228.90"/>
    </edge>
    <edge id=":1027146483_6" function="internal">
        <lane id=":1027146483_6_0" index="0" speed="6.42" length="9.04" shape="772.09,4236.41 772.99,4234.09 772.91,4232.06 771.85,4230.33 769.81,4228.90"/>
    </edge>
    <edge id=":1027146483_7" function="internal">
        <lane id=":1027146483_7_0" index="0" speed="13.89" length="14.48" shape="772.09,4236.41 778.83,4223.59"/>
    </edge>
    <edge id=":1027146483_8" function="internal">
        <lane id=":1027146483_8_0" index="0" speed="3.65" length="2.34" shape="772.09,4236.41 773.38,4235.75 774.27,4235.80"/>
    </edge>
    <edge id=":1027146483_11" function="internal">
        <lane id=":1027146483_11_0" index="0" speed="3.65" length="2.34" shape="774.27,4235.80 774.77,4236.54 774.88,4237.98"/>
    </edge>
    <edge id=":1027146493_0" function="internal">
        <lane id=":1027146493_0_0" index="0" speed="6.17" length="9.05" shape="403.62,4146.43 401.41,4145.17 399.43,4145.02 397.69,4145.97 396.19,4148.03"/>
    </edge>
    <edge id=":1027146493_1" function="internal">
        <lane id=":1027146493_1_0" index="0" speed="13.89" length="14.72" shape="403.62,4146.43 400.65,4144.22 397.62,4142.16 394.51,4140.25 391.26,4138.47"/>
    </edge>
    <edge id=":1027146493_2" function="internal">
        <lane id=":1027146493_2_0" index="0" speed="8.87" length="15.01" shape="403.62,4146.43 400.71,4143.51 399.17,4140.32 399.01,4136.88 400.23,4133.18"/>
    </edge>
    <edge id=":1027146493_3" function="internal">
        <lane id=":1027146493_3_0" index="0" speed="3.65" length="4.67" shape="403.62,4146.43 403.16,4145.06 403.34,4144.18 404.14,4143.80 405.58,4143.90"/>
    </edge>
    <edge id=":1027146493_4" function="internal">
        <lane id=":1027146493_4_0" index="0" speed="7.52" length="10.55" shape="403.10,4134.60 402.26,4137.18 402.39,4139.59 403.50,4141.83 405.58,4143.90"/>
    </edge>
    <edge id=":1027146493_5" function="internal">
        <lane id=":1027146493_5_0" index="0" speed="13.89" length="15.10" shape="403.10,4134.60 396.19,4148.03"/>
    </edge>
    <edge id=":1027146493_6" function="internal">
        <lane id=":1027146493_6_0" index="0" speed="7.97" length="6.08" shape="403.10,4134.60 400.87,4137.83 399.05,4138.98"/>
    </edge>
    <edge id=":1027146493_7" function="internal">
        <lane id=":1027146493_7_0" index="0" speed="3.65" length="2.34" shape="403.10,4134.60 401.85,4135.32 400.95,4135.32"/>
    </edge>
    <edge id=":1027146493_16" function="internal">
        <lane id=":1027146493_16_0" index="0" speed="7.97" length="8.18" shape="399.05,4138.98 398.16,4139.54 394.95,4139.76 391.26,4138.47"/>
    </edge>
    <edge id=":1027146493_17" function="internal">
        <lane id=":1027146493_17_0" index="0" speed="3.65" length="2.34" shape="400.95,4135.32 400.41,4134.61 400.23,4133.18"/>
    </edge>
    <edge id=":1027146493_8" function="internal">
        <lane id=":1027146493_8_0" index="0" speed="6.47" length="9.03" shape="392.73,4135.63 395.07,4136.45 397.10,4136.31 398.82,4135.22 400.23,4133.18"/>
    </edge>
    <edge id=":1027146493_9" function="internal">
        <lane id=":1027146493_9_0" index="0" speed="13.89" length="15.30" shape="392.73,4135.63 396.05,4137.46 399.34,4139.48 402.53,4141.64 405.58,4143.90"/>
    </edge>
    <edge id=":1027146493_10" function="internal">
        <lane id=":1027146493_10_0" index="0" speed="8.11" length="14.71" shape="392.73,4135.63 395.90,4137.93 397.53,4140.77 397.63,4144.13 396.19,4148.03"/>
    </edge>
    <edge id=":1027146493_11" function="internal">
        <lane id=":1027146493_11_0" index="0" speed="3.65" length="4.67" shape="392.73,4135.63 393.43,4136.89 393.41,4137.78 392.69,4138.31 391.26,4138.47"/>
    </edge>
    <edge id=":1027146493_12" function="internal">
        <lane id=":1027146493_12_0" index="0" speed="6.64" length="9.52" shape="393.37,4146.53 394.32,4143.98 394.29,4141.78 393.27,4139.95 391.26,4138.47"/>
    </edge>
    <edge id=":1027146493_13" function="internal">
        <lane id=":1027146493_13_0" index="0" speed="13.89" length="15.01" shape="393.37,4146.53 400.23,4133.18"/>
    </edge>
    <edge id=":1027146493_14" function="internal">
        <lane id=":1027146493_14_0" index="0" speed="7.73" length="5.88" shape="393.37,4146.53 395.83,4143.15 397.32,4142.33"/>
    </edge>
    <edge id=":1027146493_15" function="internal">
        <lane id=":1027146493_15_0" index="0" speed="3.65" length="2.34" shape="393.37,4146.53 394.63,4145.84 395.53,4145.87"/>
    </edge>
    <edge id=":1027146493_18" function="internal">
        <lane id=":1027146493_18_0" index="0" speed="7.73" length="9.01" shape="397.32,4142.33 398.69,4141.58 401.94,4141.83 405.58,4143.90"/>
    </edge>
    <edge id=":1027146493_19" function="internal">
        <lane id=":1027146493_19_0" index="0" speed="3.65" length="2.34" shape="395.53,4145.87 396.05,4146.59 396.19,4148.03"/>
    </edge>
    <edge id=":1027146521_0" function="internal">
        <lane id=":1027146521_0_0" index="0" speed="6.53" length="9.02" shape="133.95,4554.69 132.16,4556.37 131.33,4558.23 131.47,4560.27 132.58,4562.49"/>
    </edge>
    <edge id=":1027146521_1" function="internal">
        <lane id=":1027146521_1_0" index="0" speed="13.89" length="14.50" shape="133.95,4554.69 121.92,4562.78"/>
    </edge>
    <edge id=":1027146521_2" function="internal">
        <lane id=":1027146521_2_0" index="0" speed="3.65" length="2.34" shape="133.95,4554.69 132.51,4554.72 131.72,4554.29"/>
    </edge>
    <edge id=":1027146521_6" function="internal">
        <lane id=":1027146521_6_0" index="0" speed="3.65" length="2.34" shape="131.72,4554.29 131.59,4553.41 132.12,4552.06"/>
    </edge>
    <edge id=":1027146521_3" function="internal">
        <lane id=":1027146521_3_0" index="0" speed="13.89" length="14.29" shape="120.26,4560.04 132.12,4552.06"/>
    </edge>
    <edge id=":1027146521_4" function="internal">
        <lane id=":1027146521_4_0" index="0" speed="7.49" length="3.88" shape="120.26,4560.04 122.65,4559.22 123.98,4559.46"/>
    </edge>
    <edge id=":1027146521_5" function="internal">
        <lane id=":1027146521_5_0" index="0" speed="3.65" length="2.34" shape="120.26,4560.04 121.70,4560.10 122.46,4560.58"/>
    </edge>
    <edge id=":1027146521_7" function="internal">
        <lane id=":1027146521_7_0" index="0" speed="7.49" length="7.89" shape="123.98,4559.46 125.06,4559.66 127.49,4561.35 129.94,4564.30"/>
    </edge>
    <edge id=":1027146521_8" function="internal">
        <lane id=":1027146521_8_0" index="0" speed="3.65" length="2.34" shape="122.46,4560.58 122.53,4561.47 121.92,4562.78"/>
    </edge>
    <edge id=":1027146536_0" function="internal">
        <lane id=":1027146536_0_0" index="0" speed="6.52" length="9.03" shape="500.27,4736.10 498.72,4734.19 496.91,4733.22 494.87,4733.21 492.59,4734.15"/>
    </edge>
    <edge id=":1027146536_1" function="internal">
        <lane id=":1027146536_1_0" index="0" speed="13.89" length="14.60" shape="500.27,4736.10 492.89,4723.51"/>
    </edge>
    <edge id=":1027146536_2" function="internal">
        <lane id=":1027146536_2_0" index="0" speed="8.16" length="6.01" shape="500.27,4736.10 498.78,4732.53 498.78,4730.39"/>
    </edge>
    <edge id=":1027146536_3" function="internal">
        <lane id=":1027146536_3_0" index="0" speed="3.65" length="2.34" shape="500.27,4736.10 500.34,4734.66 500.82,4733.91"/>
    </edge>
    <edge id=":1027146536_16" function="internal">
        <lane id=":1027146536_16_0" index="0" speed="8.16" length="8.37" shape="498.78,4730.39 498.78,4729.28 500.28,4726.35 503.27,4723.75"/>
    </edge>
    <edge id=":1027146536_17" function="internal">
        <lane id=":1027146536_17_0" index="0" speed="3.65" length="2.34" shape="500.82,4733.91 501.71,4733.84 503.02,4734.46"/>
    </edge>
    <edge id=":1027146536_4" function="internal">
        <lane id=":1027146536_4_0" index="0" speed="6.70" length="9.36" shape="505.02,4726.43 503.06,4728.13 502.07,4730.03 502.06,4732.14 503.02,4734.46"/>
    </edge>
    <edge id=":1027146536_5" function="internal">
        <lane id=":1027146536_5_0" index="0" speed="13.89" length="14.64" shape="505.02,4726.43 492.59,4734.15"/>
    </edge>
    <edge id=":1027146536_6" function="internal">
        <lane id=":1027146536_6_0" index="0" speed="7.90" length="14.42" shape="505.02,4726.43 501.41,4728.11 498.18,4728.18 495.34,4726.65 492.89,4723.51"/>
    </edge>
    <edge id=":1027146536_7" function="internal">
        <lane id=":1027146536_7_0" index="0" speed="3.65" length="4.67" shape="505.02,4726.43 503.58,4726.42 502.80,4725.96 502.70,4725.07 503.27,4723.75"/>
    </edge>
    <edge id=":1027146536_8" function="internal">
        <lane id=":1027146536_8_0" index="0" speed="6.38" length="9.04" shape="495.67,4721.92 497.20,4723.89 498.98,4724.85 501.01,4724.80 503.27,4723.75"/>
    </edge>
    <edge id=":1027146536_9" function="internal">
        <lane id=":1027146536_9_0" index="0" speed="13.89" length="14.53" shape="495.67,4721.92 503.02,4734.46"/>
    </edge>
    <edge id=":1027146536_10" function="internal">
        <lane id=":1027146536_10_0" index="0" speed="8.08" length="5.95" shape="495.67,4721.92 497.15,4725.60 497.13,4727.58"/>
    </edge>
    <edge id=":1027146536_11" function="internal">
        <lane id=":1027146536_11_0" index="0" speed="3.65" length="2.34" shape="495.67,4721.92 495.57,4723.36 495.07,4724.10"/>
    </edge>
    <edge id=":1027146536_18" function="internal">
        <lane id=":1027146536_18_0" index="0" speed="8.08" length="8.39" shape="497.13,4727.58 497.13,4728.87 495.61,4731.72 492.59,4734.15"/>
    </edge>
    <edge id=":1027146536_19" function="internal">
        <lane id=":1027146536_19_0" index="0" speed="3.65" length="2.34" shape="495.07,4724.10 494.18,4724.15 492.89,4723.51"/>
    </edge>
    <edge id=":1027146536_12" function="internal">
        <lane id=":1027146536_12_0" index="0" speed="6.60" length="9.23" shape="490.96,4731.40 492.89,4729.84 493.85,4728.00 493.85,4725.89 492.89,4723.51"/>
    </edge>
    <edge id=":1027146536_13" function="internal">
        <lane id=":1027146536_13_0" index="0" speed="13.89" length="14.49" shape="490.96,4731.40 503.27,4723.75"/>
    </edge>
    <edge id=":1027146536_14" function="internal">
        <lane id=":1027146536_14_0" index="0" speed="8.02" length="14.16" shape="490.96,4731.40 494.54,4729.92 497.75,4729.93 500.57,4731.45 503.02,4734.46"/>
    </edge>
    <edge id=":1027146536_15" function="internal">
        <lane id=":1027146536_15_0" index="0" speed="3.65" length="4.67" shape="490.96,4731.40 492.40,4731.48 493.15,4731.96 493.21,4732.85 492.59,4734.15"/>
    </edge>
    <edge id=":1027146585_0" function="internal">
        <lane id=":1027146585_0_0" index="0" speed="7.54" length="10.35" shape="457.61,4403.58 455.30,4402.81 453.01,4402.99 450.74,4404.13 448.49,4406.22"/>
    </edge>
    <edge id=":1027146585_1" function="internal">
        <lane id=":1027146585_1_0" index="0" speed="13.89" length="14.61" shape="457.61,4403.58 444.67,4396.80"/>
    </edge>
    <edge id=":1027146585_2" function="internal">
        <lane id=":1027146585_2_0" index="0" speed="3.65" length="2.34" shape="457.61,4403.58 456.94,4402.31 456.96,4401.41"/>
    </edge>
    <edge id=":1027146585_9" function="internal">
        <lane id=":1027146585_9_0" index="0" speed="3.65" length="2.34" shape="456.96,4401.41 457.70,4400.90 459.13,4400.76"/>
    </edge>
    <edge id=":1027146585_3" function="internal">
        <lane id=":1027146585_3_0" index="0" speed="13.89" length="14.68" shape="446.13,4393.95 459.13,4400.76"/>
    </edge>
    <edge id=":1027146585_4" function="internal">
        <lane id=":1027146585_4_0" index="0" speed="7.63" length="6.17" shape="446.13,4393.95 449.66,4396.45 450.54,4398.07"/>
    </edge>
    <edge id=":1027146585_5" function="internal">
        <lane id=":1027146585_5_0" index="0" speed="3.65" length="2.34" shape="446.13,4393.95 446.83,4395.21 446.82,4396.11"/>
    </edge>
    <edge id=":1027146585_10" function="internal">
        <lane id=":1027146585_10_0" index="0" speed="7.63" length="9.04" shape="450.54,4398.07 451.23,4399.33 450.84,4402.59 448.49,4406.22"/>
    </edge>
    <edge id=":1027146585_11" function="internal">
        <lane id=":1027146585_11_0" index="0" speed="3.65" length="2.34" shape="446.82,4396.11 446.10,4396.63 444.67,4396.80"/>
    </edge>
    <edge id=":1027146585_6" function="internal">
        <lane id=":1027146585_6_0" index="0" speed="6.04" length="9.07" shape="446.07,4404.11 447.48,4401.95 447.71,4400.01 446.77,4398.29 444.67,4396.80"/>
    </edge>
    <edge id=":1027146585_7" function="internal">
        <lane id=":1027146585_7_0" index="0" speed="8.89" length="14.71" shape="446.07,4404.11 449.20,4401.26 452.42,4399.75 455.73,4399.58 459.13,4400.76"/>
    </edge>
    <edge id=":1027146585_8" function="internal">
        <lane id=":1027146585_8_0" index="0" speed="3.65" length="4.67" shape="446.07,4404.11 447.47,4403.74 448.33,4403.96 448.67,4404.79 448.49,4406.22"/>
    </edge>
    <edge id=":1027146622_0" function="internal">
        <lane id=":1027146622_0_0" index="0" speed="13.89" length="13.99" shape="758.12,4267.87 751.57,4280.23"/>
    </edge>
    <edge id=":1027146622_1" function="internal">