<?xml version="1.0" ?>
<!-- Generated by VSimRTI -->
<routes>
	<vType id="default" length="7.5" maxSpeed="50" minGap="2.0" carFollowModel="Krauss" accel="0.80" decel="4.5" sigma="0.5" tau="1"/>
	<route id="1" edges="253095371_1027146917_2590719311_1027146291 253095371_2590719311_1027146917_2590719311 253095371_2590719311_1027146917_1027146291 253095371_1027146917_2587104912_1027146917 253095371_1027146917_2587104912_4559937546 253095371_2587104912_2589088109_2587104912 252891218_2589088109_2589267284_2589088109 252912504_2589267284_2589267286_2589267284 252912505_2589267286_1027146475_2589267286 252912505_2589267286_1027146475_1027146219 252912505_1027146475_1027146208_1027146475 252912505_1027146208_1027146169_1027146208 252912505_1027146208_1027146169_2589425481 252912505_1027146208_1027146169_2589425493 252912505_1027146208_1027146169_1027147056 252912505_1027146169_1027147103_1027146169 252912505_1027147103_2589088106_1027147103 252891213_2589088106_1027146493_2589088106 252891213_2589088106_1027146493_1027146082 252891213_1027146493_2587774390_1027146493 252891213_1027146493_2587774390_2590625645 252891213_1027146493_2587774390_2587186107 36965068_2587774390_2588082086_2587774390 36965068_2587774390_2588082086_2588082081 36965068_2587774390_2588082086_2587774392 36965068_2587774390_2588082086_2588082082 36965068_2587774390_2588082086_429829591 36965068_2587774390_2588082086_2588082083 36965068_2587774390_2588082086_2587095480 36965068_2587774390_2588082086_2588082084 36965068_2587774390_2588082086_429829592 36965068_2587774390_2588082086_2588082085 36965068_2587774390_2588082086_2587774386 36965068_2587774390_2588082086_429829593 36965068_2588082086_429829588_2588082086 36965068_2588082086_429829588_429829597 36965068_2588082086_429829588_429829594 36965068_429829588_2590665958_429829588 36965068_429829588_2590665958_429829595 36965068_429829588_2590665958_429829596 318476141_2590665958_1027146664_2590665958 318476141_2590665958_1027146664_2587774381 318476141_1027146664_5706729387_1027146664 318476141_1027146664_5706729387_5706729382 318476141_1027146664_5706729387_370927432 318476141_5706729387_5706729364_5706729387 318476141_5706729364_372744311_5706729364 318476141_372744311_1106504811_372744311" />
</routes>