<edges>
	<edge id="93097625_256168306_1079117370_256168306" from="256168306" to="1079117370" numLanes="2" speed="13.89" />
	<edge id="147588162_256168326_256168308_256168326" from="256168326" to="256168325" numLanes="1" speed="13.89" />
	<edge id="147588162_256168326_256168308_256168325" from="256168325" to="256168324" numLanes="1" speed="13.89" />
	<edge id="147588162_256168326_256168308_256168324" from="256168324" to="256168323" numLanes="1" speed="13.89" />
	<edge id="147588162_256168326_256168308_256168323" from="256168323" to="6044868523" numLanes="1" speed="13.89" />
	<edge id="147588162_256168326_256168308_6044868523" from="6044868523" to="256168322" numLanes="1" speed="13.89" />
	<edge id="147588162_256168326_256168308_256168322" from="256168322" to="256168321" numLanes="1" speed="13.89" />
	<edge id="147588162_256168326_256168308_256168321" from="256168321" to="2611647454" numLanes="1" speed="13.89" />
	<edge id="147588162_256168326_256168308_2611647454" from="2611647454" to="256168320" numLanes="1" speed="13.89" />
	<edge id="147588162_256168326_256168308_256168320" from="256168320" to="256168319" numLanes="1" speed="13.89" />
	<edge id="147588162_256168326_256168308_256168319" from="256168319" to="256168318" numLanes="1" speed="13.89" />
	<edge id="147588162_256168326_256168308_256168318" from="256168318" to="2608149381" numLanes="1" speed="13.89" />
	<edge id="147588162_256168326_256168308_2608149381" from="2608149381" to="256168317" numLanes="1" speed="13.89" />
	<edge id="147588162_256168326_256168308_256168317" from="256168317" to="256168316" numLanes="1" speed="13.89" />
	<edge id="147588162_256168326_256168308_256168316" from="256168316" to="256168315" numLanes="1" speed="13.89" />
	<edge id="147588162_256168326_256168308_256168315" from="256168315" to="256168314" numLanes="1" speed="13.89" />
	<edge id="147588162_256168326_256168308_256168314" from="256168314" to="256168313" numLanes="1" speed="13.89" />
	<edge id="147588162_256168326_256168308_256168313" from="256168313" to="256168312" numLanes="1" speed="13.89" />
	<edge id="147588162_256168326_256168308_256168312" from="256168312" to="256168311" numLanes="1" speed="13.89" />
	<edge id="147588162_256168326_256168308_256168311" from="256168311" to="256168310" numLanes="1" speed="13.89" />
	<edge id="147588162_256168326_256168308_256168310" from="256168310" to="256168309" numLanes="1" speed="13.89" />
	<edge id="147588162_256168326_256168308_256168309" from="256168309" to="256168308" numLanes="1" speed="13.89" />
	<edge id="93097625_1607887632_1079117367_1607887632" from="1607887632" to="1607887633" numLanes="2" speed="13.89" />
	<edge id="93097625_1607887632_1079117367_1607887633" from="1607887633" to="1607887636" numLanes="2" speed="13.89" />
	<edge id="93097625_1607887632_1079117367_1607887636" from="1607887636" to="1079117367" numLanes="2" speed="13.89" />
	<edge id="93097625_1079117365_1607887619_1079117365" from="1079117365" to="1607887619" numLanes="2" speed="13.89" />
	<edge id="440781470_1607887655_1607887657_1607887655" from="1607887655" to="1607887657" numLanes="1" speed="13.89" />
	<edge id="254943989_2607177317_1607887657_2607177317" from="2607177317" to="2607177473" numLanes="1" speed="8.33" />
	<edge id="254943989_2607177317_1607887657_2607177473" from="2607177473" to="2607177486" numLanes="1" speed="8.33" />
	<edge id="254943989_2607177317_1607887657_2607177486" from="2607177486" to="2607177384" numLanes="1" speed="8.33" />
	<edge id="254943989_2607177317_1607887657_2607177384" from="2607177384" to="2607177403" numLanes="1" speed="8.33" />
	<edge id="254943989_2607177317_1607887657_2607177403" from="2607177403" to="2607177409" numLanes="1" speed="8.33" />
	<edge id="254943989_2607177317_1607887657_2607177409" from="2607177409" to="2607177498" numLanes="1" speed="8.33" />
	<edge id="254943989_2607177317_1607887657_2607177498" from="2607177498" to="2607177469" numLanes="1" speed="8.33" />
	<edge id="254943989_2607177317_1607887657_2607177469" from="2607177469" to="2607177513" numLanes="1" speed="8.33" />
	<edge id="254943989_2607177317_1607887657_2607177513" from="2607177513" to="1607887657" numLanes="1" speed="8.33" />
	<edge id="255477868_1607887615_1079117365_1607887615" from="1607887615" to="2611647450" numLanes="2" speed="13.89" />
	<edge id="255477868_1607887615_1079117365_2611647450" from="2611647450" to="2611647452" numLanes="2" speed="13.89" />
	<edge id="255477868_1607887615_1079117365_2611647452" from="2611647452" to="1079117365" numLanes="2" speed="13.89" />
	<edge id="254943989_1607887657_2607177317_1607887657" from="1607887657" to="2607177513" numLanes="1" speed="8.33" />
	<edge id="254943989_1607887657_2607177317_2607177513" from="2607177513" to="2607177469" numLanes="1" speed="8.33" />
	<edge id="254943989_1607887657_2607177317_2607177469" from="2607177469" to="2607177498" numLanes="1" speed="8.33" />
	<edge id="254943989_1607887657_2607177317_2607177498" from="2607177498" to="2607177409" numLanes="1" speed="8.33" />
	<edge id="254943989_1607887657_2607177317_2607177409" from="2607177409" to="2607177403" numLanes="1" speed="8.33" />
	<edge id="254943989_1607887657_2607177317_2607177403" from="2607177403" to="2607177384" numLanes="1" speed="8.33" />
	<edge id="254943989_1607887657_2607177317_2607177384" from="2607177384" to="2607177486" numLanes="1" speed="8.33" />
	<edge id="254943989_1607887657_2607177317_2607177486" from="2607177486" to="2607177473" numLanes="1" speed="8.33" />
	<edge id="254943989_1607887657_2607177317_2607177473" from="2607177473" to="2607177317" numLanes="1" speed="8.33" />
	<edge id="440781470_1607887657_2608558549_1607887657" from="1607887657" to="1607887659" numLanes="1" speed="13.89" />
	<edge id="440781470_1607887657_2608558549_1607887659" from="1607887659" to="1607887662" numLanes="1" speed="13.89" />
	<edge id="440781470_1607887657_2608558549_1607887662" from="1607887662" to="7704985698" numLanes="1" speed="13.89" />
	<edge id="440781470_1607887657_2608558549_7704985698" from="7704985698" to="7704929379" numLanes="1" speed="13.89" />
	<edge id="440781470_1607887657_2608558549_7704929379" from="7704929379" to="7704985694" numLanes="1" speed="13.89" />
	<edge id="440781470_1607887657_2608558549_7704985694" from="7704985694" to="2420090591" numLanes="1" speed="13.89" />
	<edge id="440781470_1607887657_2608558549_2420090591" from="2420090591" to="7704985687" numLanes="1" speed="13.89" />
	<edge id="440781470_1607887657_2608558549_7704985687" from="7704985687" to="1259461047" numLanes="1" speed="13.89" />
	<edge id="440781470_1607887657_2608558549_1259461047" from="1259461047" to="7704985697" numLanes="1" speed="13.89" />
	<edge id="440781470_1607887657_2608558549_7704985697" from="7704985697" to="1079117373" numLanes="1" speed="13.89" />
	<edge id="440781470_1607887657_2608558549_1079117373" from="1079117373" to="2608548147" numLanes="1" speed="13.89" />
	<edge id="440781470_1607887657_2608558549_2608548147" from="2608548147" to="2608548047" numLanes="1" speed="13.89" />
	<edge id="440781470_1607887657_2608558549_2608548047" from="2608548047" to="2608548183" numLanes="1" speed="13.89" />
	<edge id="440781470_1607887657_2608558549_2608548183" from="2608548183" to="2608558549" numLanes="1" speed="13.89" />
	<edge id="93097625_1607887619_1079117366_1607887619" from="1607887619" to="1607887621" numLanes="2" speed="13.89" />
	<edge id="93097625_1607887619_1079117366_1607887621" from="1607887621" to="1607887624" numLanes="2" speed="13.89" />
	<edge id="93097625_1607887619_1079117366_1607887624" from="1607887624" to="1079117366" numLanes="2" speed="13.89" />
	<edge id="147588164_256168308_256168306_256168308" from="256168308" to="256168307" numLanes="2" speed="13.89" />
	<edge id="147588164_256168308_256168306_256168307" from="256168307" to="256168306" numLanes="2" speed="13.89" />
	<edge id="147588177_1607887655_1079117367_1607887655" from="1607887655" to="1607887641" numLanes="2" speed="13.89" />
	<edge id="147588177_1607887655_1079117367_1607887641" from="1607887641" to="1079117367" numLanes="2" speed="13.89" />
	<edge id="93097625_1079117370_1079117365_1079117370" from="1079117370" to="1607887631" numLanes="2" speed="13.89" />
	<edge id="93097625_1079117370_1079117365_1607887631" from="1607887631" to="1607887623" numLanes="2" speed="13.89" />
	<edge id="93097625_1079117370_1079117365_1607887623" from="1607887623" to="1079117365" numLanes="2" speed="13.89" />
	<edge id="93097625_1079117367_1079117368_1079117367" from="1079117367" to="1079117368" numLanes="2" speed="13.89" />
	<edge id="255477862_1607887615_403318393_1607887615" from="1607887615" to="403318393" numLanes="1" speed="13.89" />
	<edge id="255477862_2253017341_403318393_2253017341" from="2253017341" to="403318393" numLanes="1" speed="13.89" />
	<edge id="440781470_1607887657_1607887655_1607887657" from="1607887657" to="1607887655" numLanes="1" speed="13.89" />
	<edge id="147588162_256168308_256168326_256168308" from="256168308" to="256168309" numLanes="1" speed="13.89" />
	<edge id="147588162_256168308_256168326_256168309" from="256168309" to="256168310" numLanes="1" speed="13.89" />
	<edge id="147588162_256168308_256168326_256168310" from="256168310" to="256168311" numLanes="1" speed="13.89" />
	<edge id="147588162_256168308_256168326_256168311" from="256168311" to="256168312" numLanes="1" speed="13.89" />
	<edge id="147588162_256168308_256168326_256168312" from="256168312" to="256168313" numLanes="1" speed="13.89" />
	<edge id="147588162_256168308_256168326_256168313" from="256168313" to="256168314" numLanes="1" speed="13.89" />
	<edge id="147588162_256168308_256168326_256168314" from="256168314" to="256168315" numLanes="1" speed="13.89" />
	<edge id="147588162_256168308_256168326_256168315" from="256168315" to="256168316" numLanes="1" speed="13.89" />
	<edge id="147588162_256168308_256168326_256168316" from="256168316" to="256168317" numLanes="1" speed="13.89" />
	<edge id="147588162_256168308_256168326_256168317" from="256168317" to="2608149381" numLanes="1" speed="13.89" />
	<edge id="147588162_256168308_256168326_2608149381" from="2608149381" to="256168318" numLanes="1" speed="13.89" />
	<edge id="147588162_256168308_256168326_256168318" from="256168318" to="256168319" numLanes="1" speed="13.89" />
	<edge id="147588162_256168308_256168326_256168319" from="256168319" to="256168320" numLanes="1" speed="13.89" />
	<edge id="147588162_256168308_256168326_256168320" from="256168320" to="2611647454" numLanes="1" speed="13.89" />
	<edge id="147588162_256168308_256168326_2611647454" from="2611647454" to="256168321" numLanes="1" speed="13.89" />
	<edge id="147588162_256168308_256168326_256168321" from="256168321" to="256168322" numLanes="1" speed="13.89" />
	<edge id="147588162_256168308_256168326_256168322" from="256168322" to="6044868523" numLanes="1" speed="13.89" />
	<edge id="147588162_256168308_256168326_6044868523" from="6044868523" to="256168323" numLanes="1" speed="13.89" />
	<edge id="147588162_256168308_256168326_256168323" from="256168323" to="256168324" numLanes="1" speed="13.89" />
	<edge id="147588162_256168308_256168326_256168324" from="256168324" to="256168325" numLanes="1" speed="13.89" />
	<edge id="147588162_256168308_256168326_256168325" from="256168325" to="256168326" numLanes="1" speed="13.89" />
	<edge id="440781470_2608558549_1607887657_2608558549" from="2608558549" to="2608548183" numLanes="1" speed="13.89" />
	<edge id="440781470_2608558549_1607887657_2608548183" from="2608548183" to="2608548047" numLanes="1" speed="13.89" />
	<edge id="440781470_2608558549_1607887657_2608548047" from="2608548047" to="2608548147" numLanes="1" speed="13.89" />
	<edge id="440781470_2608558549_1607887657_2608548147" from="2608548147" to="1079117373" numLanes="1" speed="13.89" />
	<edge id="440781470_2608558549_1607887657_1079117373" from="1079117373" to="7704985697" numLanes="1" speed="13.89" />
	<edge id="440781470_2608558549_1607887657_7704985697" from="7704985697" to="1259461047" numLanes="1" speed="13.89" />
	<edge id="440781470_2608558549_1607887657_1259461047" from="1259461047" to="7704985687" numLanes="1" speed="13.89" />
	<edge id="440781470_2608558549_1607887657_7704985687" from="7704985687" to="2420090591" numLanes="1" speed="13.89" />
	<edge id="440781470_2608558549_1607887657_2420090591" from="2420090591" to="7704985694" numLanes="1" speed="13.89" />
	<edge id="440781470_2608558549_1607887657_7704985694" from="7704985694" to="7704929379" numLanes="1" speed="13.89" />
	<edge id="440781470_2608558549_1607887657_7704929379" from="7704929379" to="7704985698" numLanes="1" speed="13.89" />
	<edge id="440781470_2608558549_1607887657_7704985698" from="7704985698" to="1607887662" numLanes="1" speed="13.89" />
	<edge id="440781470_2608558549_1607887657_1607887662" from="1607887662" to="1607887659" numLanes="1" speed="13.89" />
	<edge id="440781470_2608558549_1607887657_1607887659" from="1607887659" to="1607887657" numLanes="1" speed="13.89" />
	<edge id="93097625_1079117368_256168306_1079117368" from="1079117368" to="1607887637" numLanes="2" speed="13.89" />
	<edge id="93097625_1079117368_256168306_1607887637" from="1607887637" to="1607887634" numLanes="2" speed="13.89" />
	<edge id="93097625_1079117368_256168306_1607887634" from="1607887634" to="256168306" numLanes="2" speed="13.89" />
	<edge id="95446970_403318286_403318393_403318286" from="403318286" to="403318289" numLanes="1" speed="13.89" />
	<edge id="95446970_403318286_403318393_403318289" from="403318289" to="1572271482" numLanes="1" speed="13.89" />
	<edge id="95446970_403318286_403318393_1572271482" from="1572271482" to="1572271483" numLanes="1" speed="13.89" />
	<edge id="95446970_403318286_403318393_1572271483" from="1572271483" to="1572271484" numLanes="1" speed="13.89" />
	<edge id="95446970_403318286_403318393_1572271484" from="1572271484" to="403318293" numLanes="1" speed="13.89" />
	<edge id="95446970_403318286_403318393_403318293" from="403318293" to="1572271486" numLanes="1" speed="13.89" />
	<edge id="95446970_403318286_403318393_1572271486" from="1572271486" to="403318296" numLanes="1" speed="13.89" />
	<edge id="95446970_403318286_403318393_403318296" from="403318296" to="1572271488" numLanes="1" speed="13.89" />
	<edge id="95446970_403318286_403318393_1572271488" from="1572271488" to="403318300" numLanes="1" speed="13.89" />
	<edge id="95446970_403318286_403318393_403318300" from="403318300" to="1572271487" numLanes="1" speed="13.89" />
	<edge id="95446970_403318286_403318393_1572271487" from="1572271487" to="403318304" numLanes="1" speed="13.89" />
	<edge id="95446970_403318286_403318393_403318304" from="403318304" to="1572271485" numLanes="1" speed="13.89" />
	<edge id="95446970_403318286_403318393_1572271485" from="1572271485" to="403318307" numLanes="1" speed="13.89" />
	<edge id="95446970_403318286_403318393_403318307" from="403318307" to="403318309" numLanes="1" speed="13.89" />
	<edge id="95446970_403318286_403318393_403318309" from="403318309" to="403318312" numLanes="1" speed="13.89" />
	<edge id="95446970_403318286_403318393_403318312" from="403318312" to="403318315" numLanes="1" speed="13.89" />
	<edge id="95446970_403318286_403318393_403318315" from="403318315" to="403318317" numLanes="1" speed="13.89" />
	<edge id="95446970_403318286_403318393_403318317" from="403318317" to="403318321" numLanes="1" speed="13.89" />
	<edge id="95446970_403318286_403318393_403318321" from="403318321" to="403318326" numLanes="1" speed="13.89" />
	<edge id="95446970_403318286_403318393_403318326" from="403318326" to="403318329" numLanes="1" speed="13.89" />
	<edge id="95446970_403318286_403318393_403318329" from="403318329" to="2607138395" numLanes="1" speed="13.89" />
	<edge id="95446970_403318286_403318393_2607138395" from="2607138395" to="403318333" numLanes="1" speed="13.89" />
	<edge id="95446970_403318286_403318393_403318333" from="403318333" to="3673155964" numLanes="1" speed="13.89" />
	<edge id="95446970_403318286_403318393_3673155964" from="3673155964" to="403318336" numLanes="1" speed="13.89" />
	<edge id="95446970_403318286_403318393_403318336" from="403318336" to="403318339" numLanes="1" speed="13.89" />
	<edge id="95446970_403318286_403318393_403318339" from="403318339" to="403318342" numLanes="1" speed="13.89" />
	<edge id="95446970_403318286_403318393_403318342" from="403318342" to="5073949916" numLanes="1" speed="13.89" />
	<edge id="95446970_403318286_403318393_5073949916" from="5073949916" to="1572271489" numLanes="1" speed="13.89" />
	<edge id="95446970_403318286_403318393_1572271489" from="1572271489" to="403318345" numLanes="1" speed="13.89" />
	<edge id="95446970_403318286_403318393_403318345" from="403318345" to="1572271490" numLanes="1" speed="13.89" />
	<edge id="95446970_403318286_403318393_1572271490" from="1572271490" to="403318348" numLanes="1" speed="13.89" />
	<edge id="95446970_403318286_403318393_403318348" from="403318348" to="403318350" numLanes="1" speed="13.89" />
	<edge id="95446970_403318286_403318393_403318350" from="403318350" to="403318352" numLanes="1" speed="13.89" />
	<edge id="95446970_403318286_403318393_403318352" from="403318352" to="1572271491" numLanes="1" speed="13.89" />
	<edge id="95446970_403318286_403318393_1572271491" from="1572271491" to="403318355" numLanes="1" speed="13.89" />
	<edge id="95446970_403318286_403318393_403318355" from="403318355" to="2253017306" numLanes="1" speed="13.89" />
	<edge id="95446970_403318286_403318393_2253017306" from="2253017306" to="403318356" numLanes="1" speed="13.89" />
	<edge id="95446970_403318286_403318393_403318356" from="403318356" to="403318360" numLanes="1" speed="13.89" />
	<edge id="95446970_403318286_403318393_403318360" from="403318360" to="403318363" numLanes="1" speed="13.89" />
	<edge id="95446970_403318286_403318393_403318363" from="403318363" to="403318366" numLanes="1" speed="13.89" />
	<edge id="95446970_403318286_403318393_403318366" from="403318366" to="403318367" numLanes="1" speed="13.89" />
	<edge id="95446970_403318286_403318393_403318367" from="403318367" to="403318370" numLanes="1" speed="13.89" />
	<edge id="95446970_403318286_403318393_403318370" from="403318370" to="403318372" numLanes="1" speed="13.89" />
	<edge id="95446970_403318286_403318393_403318372" from="403318372" to="403318373" numLanes="1" speed="13.89" />
	<edge id="95446970_403318286_403318393_403318373" from="403318373" to="403318375" numLanes="1" speed="13.89" />
	<edge id="95446970_403318286_403318393_403318375" from="403318375" to="403318384" numLanes="1" speed="13.89" />
	<edge id="95446970_403318286_403318393_403318384" from="403318384" to="403318387" numLanes="1" speed="13.89" />
	<edge id="95446970_403318286_403318393_403318387" from="403318387" to="403318388" numLanes="1" speed="13.89" />
	<edge id="95446970_403318286_403318393_403318388" from="403318388" to="403318390" numLanes="1" speed="13.89" />
	<edge id="95446970_403318286_403318393_403318390" from="403318390" to="403318393" numLanes="1" speed="13.89" />
	<edge id="255477862_403318393_2253017341_403318393" from="403318393" to="2253017341" numLanes="1" speed="13.89" />
	<edge id="24220360_244686247_244685818_244686247" from="244686247" to="244686245" numLanes="1" speed="13.89" />
	<edge id="24220360_244686247_244685818_244686245" from="244686245" to="244685821" numLanes="1" speed="13.89" />
	<edge id="24220360_244686247_244685818_244685821" from="244685821" to="2611647458" numLanes="1" speed="13.89" />
	<edge id="24220360_244686247_244685818_2611647458" from="2611647458" to="2611647446" numLanes="1" speed="13.89" />
	<edge id="24220360_244686247_244685818_2611647446" from="2611647446" to="2611647444" numLanes="1" speed="13.89" />
	<edge id="24220360_244686247_244685818_2611647444" from="2611647444" to="2611647464" numLanes="1" speed="13.89" />
	<edge id="24220360_244686247_244685818_2611647464" from="2611647464" to="2611647460" numLanes="1" speed="13.89" />
	<edge id="24220360_244686247_244685818_2611647460" from="2611647460" to="244685820" numLanes="1" speed="13.89" />
	<edge id="24220360_244686247_244685818_244685820" from="244685820" to="2611647470" numLanes="1" speed="13.89" />
	<edge id="24220360_244686247_244685818_2611647470" from="2611647470" to="2611647456" numLanes="1" speed="13.89" />
	<edge id="24220360_244686247_244685818_2611647456" from="2611647456" to="244685818" numLanes="1" speed="13.89" />
	<edge id="93097626_1079117368_256168308_1079117368" from="1079117368" to="1607887643" numLanes="2" speed="13.89" />
	<edge id="93097626_1079117368_256168308_1607887643" from="1607887643" to="256168308" numLanes="2" speed="13.89" />
	<edge id="147588173_1607887632_1607887655_1607887632" from="1607887632" to="1607887639" numLanes="2" speed="13.89" />
	<edge id="147588173_1607887632_1607887655_1607887639" from="1607887639" to="1607887655" numLanes="2" speed="13.89" />
	<edge id="95446970_403318393_403318286_403318393" from="403318393" to="403318390" numLanes="1" speed="13.89" />
	<edge id="95446970_403318393_403318286_403318390" from="403318390" to="403318388" numLanes="1" speed="13.89" />
	<edge id="95446970_403318393_403318286_403318388" from="403318388" to="403318387" numLanes="1" speed="13.89" />
	<edge id="95446970_403318393_403318286_403318387" from="403318387" to="403318384" numLanes="1" speed="13.89" />
	<edge id="95446970_403318393_403318286_403318384" from="403318384" to="403318375" numLanes="1" speed="13.89" />
	<edge id="95446970_403318393_403318286_403318375" from="403318375" to="403318373" numLanes="1" speed="13.89" />
	<edge id="95446970_403318393_403318286_403318373" from="403318373" to="403318372" numLanes="1" speed="13.89" />
	<edge id="95446970_403318393_403318286_403318372" from="403318372" to="403318370" numLanes="1" speed="13.89" />
	<edge id="95446970_403318393_403318286_403318370" from="403318370" to="403318367" numLanes="1" speed="13.89" />
	<edge id="95446970_403318393_403318286_403318367" from="403318367" to="403318366" numLanes="1" speed="13.89" />
	<edge id="95446970_403318393_403318286_403318366" from="403318366" to="403318363" numLanes="1" speed="13.89" />
	<edge id="95446970_403318393_403318286_403318363" from="403318363" to="403318360" numLanes="1" speed="13.89" />
	<edge id="95446970_403318393_403318286_403318360" from="403318360" to="403318356" numLanes="1" speed="13.89" />
	<edge id="95446970_403318393_403318286_403318356" from="403318356" to="2253017306" numLanes="1" speed="13.89" />
	<edge id="95446970_403318393_403318286_2253017306" from="2253017306" to="403318355" numLanes="1" speed="13.89" />
	<edge id="95446970_403318393_403318286_403318355" from="403318355" to="1572271491" numLanes="1" speed="13.89" />
	<edge id="95446970_403318393_403318286_1572271491" from="1572271491" to="403318352" numLanes="1" speed="13.89" />
	<edge id="95446970_403318393_403318286_403318352" from="403318352" to="403318350" numLanes="1" speed="13.89" />
	<edge id="95446970_403318393_403318286_403318350" from="403318350" to="403318348" numLanes="1" speed="13.89" />
	<edge id="95446970_403318393_403318286_403318348" from="403318348" to="1572271490" numLanes="1" speed="13.89" />
	<edge id="95446970_403318393_403318286_1572271490" from="1572271490" to="403318345" numLanes="1" speed="13.89" />
	<edge id="95446970_403318393_403318286_403318345" from="403318345" to="1572271489" numLanes="1" speed="13.89" />
	<edge id="95446970_403318393_403318286_1572271489" from="1572271489" to="5073949916" numLanes="1" speed="13.89" />
	<edge id="95446970_403318393_403318286_5073949916" from="5073949916" to="403318342" numLanes="1" speed="13.89" />
	<edge id="95446970_403318393_403318286_403318342" from="403318342" to="403318339" numLanes="1" speed="13.89" />
	<edge id="95446970_403318393_403318286_403318339" from="403318339" to="403318336" numLanes="1" speed="13.89" />
	<edge id="95446970_403318393_403318286_403318336" from="403318336" to="3673155964" numLanes="1" speed="13.89" />
	<edge id="95446970_403318393_403318286_3673155964" from="3673155964" to="403318333" numLanes="1" speed="13.89" />
	<edge id="95446970_403318393_403318286_403318333" from="403318333" to="2607138395" numLanes="1" speed="13.89" />
	<edge id="95446970_403318393_403318286_2607138395" from="2607138395" to="403318329" numLanes="1" speed="13.89" />
	<edge id="95446970_403318393_403318286_403318329" from="403318329" to="403318326" numLanes="1" speed="13.89" />
	<edge id="95446970_403318393_403318286_403318326" from="403318326" to="403318321" numLanes="1" speed="13.89" />
	<edge id="95446970_403318393_403318286_403318321" from="403318321" to="403318317" numLanes="1" speed="13.89" />
	<edge id="95446970_403318393_403318286_403318317" from="403318317" to="403318315" numLanes="1" speed="13.89" />
	<edge id="95446970_403318393_403318286_403318315" from="403318315" to="403318312" numLanes="1" speed="13.89" />
	<edge id="95446970_403318393_403318286_403318312" from="403318312" to="403318309" numLanes="1" speed="13.89" />
	<edge id="95446970_403318393_403318286_403318309" from="403318309" to="403318307" numLanes="1" speed="13.89" />
	<edge id="95446970_403318393_403318286_403318307" from="403318307" to="1572271485" numLanes="1" speed="13.89" />
	<edge id="95446970_403318393_403318286_1572271485" from="1572271485" to="403318304" numLanes="1" speed="13.89" />
	<edge id="95446970_403318393_403318286_403318304" from="403318304" to="1572271487" numLanes="1" speed="13.89" />
	<edge id="95446970_403318393_403318286_1572271487" from="1572271487" to="403318300" numLanes="1" speed="13.89" />
	<edge id="95446970_403318393_403318286_403318300" from="403318300" to="1572271488" numLanes="1" speed="13.89" />
	<edge id="95446970_403318393_403318286_1572271488" from="1572271488" to="403318296" numLanes="1" speed="13.89" />
	<edge id="95446970_403318393_403318286_403318296" from="403318296" to="1572271486" numLanes="1" speed="13.89" />
	<edge id="95446970_403318393_403318286_1572271486" from="1572271486" to="403318293" numLanes="1" speed="13.89" />
	<edge id="95446970_403318393_403318286_403318293" from="403318293" to="1572271484" numLanes="1" speed="13.89" />
	<edge id="95446970_403318393_403318286_1572271484" from="1572271484" to="1572271483" numLanes="1" speed="13.89" />
	<edge id="95446970_403318393_403318286_1572271483" from="1572271483" to="1572271482" numLanes="1" speed="13.89" />
	<edge id="95446970_403318393_403318286_1572271482" from="1572271482" to="403318289" numLanes="1" speed="13.89" />
	<edge id="95446970_403318393_403318286_403318289" from="403318289" to="403318286" numLanes="1" speed="13.89" />
	<edge id="24220360_244685818_244686247_244685818" from="244685818" to="2611647456" numLanes="1" speed="13.89" />
	<edge id="24220360_244685818_244686247_2611647456" from="2611647456" to="2611647470" numLanes="1" speed="13.89" />
	<edge id="24220360_244685818_244686247_2611647470" from="2611647470" to="244685820" numLanes="1" speed="13.89" />
	<edge id="24220360_244685818_244686247_244685820" from="244685820" to="2611647460" numLanes="1" speed="13.89" />
	<edge id="24220360_244685818_244686247_2611647460" from="2611647460" to="2611647464" numLanes="1" speed="13.89" />
	<edge id="24220360_244685818_244686247_2611647464" from="2611647464" to="2611647444" numLanes="1" speed="13.89" />
	<edge id="24220360_244685818_244686247_2611647444" from="2611647444" to="2611647446" numLanes="1" speed="13.89" />
	<edge id="24220360_244685818_244686247_2611647446" from="2611647446" to="2611647458" numLanes="1" speed="13.89" />
	<edge id="24220360_244685818_244686247_2611647458" from="2611647458" to="244685821" numLanes="1" speed="13.89" />
	<edge id="24220360_244685818_244686247_244685821" from="244685821" to="244686245" numLanes="1" speed="13.89" />
	<edge id="24220360_244685818_244686247_244686245" from="244686245" to="244686247" numLanes="1" speed="13.89" />
	<edge id="93097628_1079117370_1607887615_1079117370" from="1079117370" to="1607887626" numLanes="2" speed="13.89" />
	<edge id="93097628_1079117370_1607887615_1607887626" from="1607887626" to="1607887615" numLanes="2" speed="13.89" />
	<edge id="147588163_244686247_1079117366_244686247" from="244686247" to="1607887617" numLanes="2" speed="13.89" />
	<edge id="147588163_244686247_1079117366_1607887617" from="1607887617" to="1079117366" numLanes="2" speed="13.89" />
	<edge id="93097625_1079117366_1607887632_1079117366" from="1079117366" to="1607887632" numLanes="2" speed="13.89" />
	<edge id="255477862_403318393_1607887615_403318393" from="403318393" to="1607887615" numLanes="1" speed="13.89" />
	<edge id="23645635_1607887619_244686247_1607887619" from="1607887619" to="1607887611" numLanes="2" speed="13.89" />
	<edge id="23645635_1607887619_244686247_1607887611" from="1607887611" to="244686247" numLanes="2" speed="13.89" />
	<roundabout edges="93097625_256168306_1079117370_256168306 93097625_1607887632_1079117367_1607887632 93097625_1607887632_1079117367_1607887633 93097625_1607887632_1079117367_1607887636 93097625_1079117365_1607887619_1079117365 93097625_1607887619_1079117366_1607887619 93097625_1607887619_1079117366_1607887621 93097625_1607887619_1079117366_1607887624 93097625_1079117370_1079117365_1079117370 93097625_1079117370_1079117365_1607887631 93097625_1079117370_1079117365_1607887623 93097625_1079117367_1079117368_1079117367 93097625_1079117368_256168306_1079117368 93097625_1079117368_256168306_1607887637 93097625_1079117368_256168306_1607887634 93097625_1079117366_1607887632_1079117366" />
</edges>
