<connections>
	<connection from="93097625_256168306_1079117370_256168306" to="93097625_1079117370_1079117365_1079117370" />
	<connection from="93097625_256168306_1079117370_256168306" to="93097628_1079117370_1607887615_1079117370" />
	<connection from="147588162_256168326_256168308_256168326" to="147588162_256168326_256168308_256168325" />
	<connection from="147588162_256168326_256168308_256168325" to="147588162_256168326_256168308_256168324" />
	<connection from="147588162_256168326_256168308_256168324" to="147588162_256168326_256168308_256168323" />
	<connection from="147588162_256168326_256168308_256168323" to="147588162_256168326_256168308_6044868523" />
	<connection from="147588162_256168326_256168308_6044868523" to="147588162_256168326_256168308_256168322" />
	<connection from="147588162_256168326_256168308_256168322" to="147588162_256168326_256168308_256168321" />
	<connection from="147588162_256168326_256168308_256168321" to="147588162_256168326_256168308_2611647454" />
	<connection from="147588162_256168326_256168308_2611647454" to="147588162_256168326_256168308_256168320" />
	<connection from="147588162_256168326_256168308_256168320" to="147588162_256168326_256168308_256168319" />
	<connection from="147588162_256168326_256168308_256168319" to="147588162_256168326_256168308_256168318" />
	<connection from="147588162_256168326_256168308_256168318" to="147588162_256168326_256168308_2608149381" />
	<connection from="147588162_256168326_256168308_2608149381" to="147588162_256168326_256168308_256168317" />
	<connection from="147588162_256168326_256168308_256168317" to="147588162_256168326_256168308_256168316" />
	<connection from="147588162_256168326_256168308_256168316" to="147588162_256168326_256168308_256168315" />
	<connection from="147588162_256168326_256168308_256168315" to="147588162_256168326_256168308_256168314" />
	<connection from="147588162_256168326_256168308_256168314" to="147588162_256168326_256168308_256168313" />
	<connection from="147588162_256168326_256168308_256168313" to="147588162_256168326_256168308_256168312" />
	<connection from="147588162_256168326_256168308_256168312" to="147588162_256168326_256168308_256168311" />
	<connection from="147588162_256168326_256168308_256168311" to="147588162_256168326_256168308_256168310" />
	<connection from="147588162_256168326_256168308_256168310" to="147588162_256168326_256168308_256168309" />
	<connection from="147588162_256168326_256168308_256168309" to="147588162_256168308_256168326_256168308" />
	<connection from="147588162_256168326_256168308_256168309" to="147588164_256168308_256168306_256168308" />
	<connection from="93097625_1607887632_1079117367_1607887632" to="93097625_1607887632_1079117367_1607887633" />
	<connection from="93097625_1607887632_1079117367_1607887633" to="93097625_1607887632_1079117367_1607887636" />
	<connection from="93097625_1607887632_1079117367_1607887636" to="93097625_1079117367_1079117368_1079117367" />
	<connection from="93097625_1079117365_1607887619_1079117365" to="93097625_1607887619_1079117366_1607887619" />
	<connection from="93097625_1079117365_1607887619_1079117365" to="23645635_1607887619_244686247_1607887619" />
	<connection from="440781470_1607887655_1607887657_1607887655" to="440781470_1607887657_1607887655_1607887657" />
	<connection from="440781470_1607887655_1607887657_1607887655" to="254943989_1607887657_2607177317_1607887657" />
	<connection from="440781470_1607887655_1607887657_1607887655" to="440781470_1607887657_2608558549_1607887657" />
	<connection from="254943989_2607177317_1607887657_2607177317" to="254943989_2607177317_1607887657_2607177473" />
	<connection from="254943989_2607177317_1607887657_2607177473" to="254943989_2607177317_1607887657_2607177486" />
	<connection from="254943989_2607177317_1607887657_2607177486" to="254943989_2607177317_1607887657_2607177384" />
	<connection from="254943989_2607177317_1607887657_2607177384" to="254943989_2607177317_1607887657_2607177403" />
	<connection from="254943989_2607177317_1607887657_2607177403" to="254943989_2607177317_1607887657_2607177409" />
	<connection from="254943989_2607177317_1607887657_2607177409" to="254943989_2607177317_1607887657_2607177498" />
	<connection from="254943989_2607177317_1607887657_2607177498" to="254943989_2607177317_1607887657_2607177469" />
	<connection from="254943989_2607177317_1607887657_2607177469" to="254943989_2607177317_1607887657_2607177513" />
	<connection from="254943989_2607177317_1607887657_2607177513" to="440781470_1607887657_1607887655_1607887657" />
	<connection from="254943989_2607177317_1607887657_2607177513" to="254943989_1607887657_2607177317_1607887657" />
	<connection from="254943989_2607177317_1607887657_2607177513" to="440781470_1607887657_2608558549_1607887657" />
	<connection from="255477868_1607887615_1079117365_1607887615" to="255477868_1607887615_1079117365_2611647450" />
	<connection from="255477868_1607887615_1079117365_2611647450" to="255477868_1607887615_1079117365_2611647452" />
	<connection from="255477868_1607887615_1079117365_2611647452" to="93097625_1079117365_1607887619_1079117365" />
	<connection from="254943989_1607887657_2607177317_1607887657" to="254943989_1607887657_2607177317_2607177513" />
	<connection from="254943989_1607887657_2607177317_2607177513" to="254943989_1607887657_2607177317_2607177469" />
	<connection from="254943989_1607887657_2607177317_2607177469" to="254943989_1607887657_2607177317_2607177498" />
	<connection from="254943989_1607887657_2607177317_2607177498" to="254943989_1607887657_2607177317_2607177409" />
	<connection from="254943989_1607887657_2607177317_2607177409" to="254943989_1607887657_2607177317_2607177403" />
	<connection from="254943989_1607887657_2607177317_2607177403" to="254943989_1607887657_2607177317_2607177384" />
	<connection from="254943989_1607887657_2607177317_2607177384" to="254943989_1607887657_2607177317_2607177486" />
	<connection from="254943989_1607887657_2607177317_2607177486" to="254943989_1607887657_2607177317_2607177473" />
	<connection from="254943989_1607887657_2607177317_2607177473" to="254943989_2607177317_1607887657_2607177317" />
	<connection from="440781470_1607887657_2608558549_1607887657" to="440781470_1607887657_2608558549_1607887659" />
	<connection from="440781470_1607887657_2608558549_1607887659" to="440781470_1607887657_2608558549_1607887662" />
	<connection from="440781470_1607887657_2608558549_1607887662" to="440781470_1607887657_2608558549_7704985698" />
	<connection from="440781470_1607887657_2608558549_7704985698" to="440781470_1607887657_2608558549_7704929379" />
	<connection from="440781470_1607887657_2608558549_7704929379" to="440781470_1607887657_2608558549_7704985694" />
	<connection from="440781470_1607887657_2608558549_7704985694" to="440781470_1607887657_2608558549_2420090591" />
	<connection from="440781470_1607887657_2608558549_2420090591" to="440781470_1607887657_2608558549_7704985687" />
	<connection from="440781470_1607887657_2608558549_7704985687" to="440781470_1607887657_2608558549_1259461047" />
	<connection from="440781470_1607887657_2608558549_1259461047" to="440781470_1607887657_2608558549_7704985697" />
	<connection from="440781470_1607887657_2608558549_7704985697" to="440781470_1607887657_2608558549_1079117373" />
	<connection from="440781470_1607887657_2608558549_1079117373" to="440781470_1607887657_2608558549_2608548147" />
	<connection from="440781470_1607887657_2608558549_2608548147" to="440781470_1607887657_2608558549_2608548047" />
	<connection from="440781470_1607887657_2608558549_2608548047" to="440781470_1607887657_2608558549_2608548183" />
	<connection from="440781470_1607887657_2608558549_2608548183" to="440781470_2608558549_1607887657_2608558549" />
	<connection from="93097625_1607887619_1079117366_1607887619" to="93097625_1607887619_1079117366_1607887621" />
	<connection from="93097625_1607887619_1079117366_1607887621" to="93097625_1607887619_1079117366_1607887624" />
	<connection from="93097625_1607887619_1079117366_1607887624" to="93097625_1079117366_1607887632_1079117366" />
	<connection from="147588164_256168308_256168306_256168308" to="147588164_256168308_256168306_256168307" />
	<connection from="147588164_256168308_256168306_256168307" to="93097625_256168306_1079117370_256168306" />
	<connection from="147588177_1607887655_1079117367_1607887655" to="147588177_1607887655_1079117367_1607887641" />
	<connection from="147588177_1607887655_1079117367_1607887641" to="93097625_1079117367_1079117368_1079117367" />
	<connection from="93097625_1079117370_1079117365_1079117370" to="93097625_1079117370_1079117365_1607887631" />
	<connection from="93097625_1079117370_1079117365_1607887631" to="93097625_1079117370_1079117365_1607887623" />
	<connection from="93097625_1079117370_1079117365_1607887623" to="93097625_1079117365_1607887619_1079117365" />
	<connection from="93097625_1079117367_1079117368_1079117367" to="93097626_1079117368_256168308_1079117368" />
	<connection from="93097625_1079117367_1079117368_1079117367" to="93097625_1079117368_256168306_1079117368" />
	<connection from="255477862_1607887615_403318393_1607887615" to="255477862_403318393_2253017341_403318393" />
	<connection from="255477862_1607887615_403318393_1607887615" to="95446970_403318393_403318286_403318393" />
	<connection from="255477862_1607887615_403318393_1607887615" to="255477862_403318393_1607887615_403318393" />
	<connection from="255477862_2253017341_403318393_2253017341" to="255477862_403318393_2253017341_403318393" />
	<connection from="255477862_2253017341_403318393_2253017341" to="95446970_403318393_403318286_403318393" />
	<connection from="255477862_2253017341_403318393_2253017341" to="255477862_403318393_1607887615_403318393" />
	<connection from="440781470_1607887657_1607887655_1607887657" to="440781470_1607887655_1607887657_1607887655" />
	<connection from="440781470_1607887657_1607887655_1607887657" to="147588177_1607887655_1079117367_1607887655" />
	<connection from="147588162_256168308_256168326_256168308" to="147588162_256168308_256168326_256168309" />
	<connection from="147588162_256168308_256168326_256168309" to="147588162_256168308_256168326_256168310" />
	<connection from="147588162_256168308_256168326_256168310" to="147588162_256168308_256168326_256168311" />
	<connection from="147588162_256168308_256168326_256168311" to="147588162_256168308_256168326_256168312" />
	<connection from="147588162_256168308_256168326_256168312" to="147588162_256168308_256168326_256168313" />
	<connection from="147588162_256168308_256168326_256168313" to="147588162_256168308_256168326_256168314" />
	<connection from="147588162_256168308_256168326_256168314" to="147588162_256168308_256168326_256168315" />
	<connection from="147588162_256168308_256168326_256168315" to="147588162_256168308_256168326_256168316" />
	<connection from="147588162_256168308_256168326_256168316" to="147588162_256168308_256168326_256168317" />
	<connection from="147588162_256168308_256168326_256168317" to="147588162_256168308_256168326_2608149381" />
	<connection from="147588162_256168308_256168326_2608149381" to="147588162_256168308_256168326_256168318" />
	<connection from="147588162_256168308_256168326_256168318" to="147588162_256168308_256168326_256168319" />
	<connection from="147588162_256168308_256168326_256168319" to="147588162_256168308_256168326_256168320" />
	<connection from="147588162_256168308_256168326_256168320" to="147588162_256168308_256168326_2611647454" />
	<connection from="147588162_256168308_256168326_2611647454" to="147588162_256168308_256168326_256168321" />
	<connection from="147588162_256168308_256168326_256168321" to="147588162_256168308_256168326_256168322" />
	<connection from="147588162_256168308_256168326_256168322" to="147588162_256168308_256168326_6044868523" />
	<connection from="147588162_256168308_256168326_6044868523" to="147588162_256168308_256168326_256168323" />
	<connection from="147588162_256168308_256168326_256168323" to="147588162_256168308_256168326_256168324" />
	<connection from="147588162_256168308_256168326_256168324" to="147588162_256168308_256168326_256168325" />
	<connection from="147588162_256168308_256168326_256168325" to="147588162_256168326_256168308_256168326" />
	<connection from="440781470_2608558549_1607887657_2608558549" to="440781470_2608558549_1607887657_2608548183" />
	<connection from="440781470_2608558549_1607887657_2608548183" to="440781470_2608558549_1607887657_2608548047" />
	<connection from="440781470_2608558549_1607887657_2608548047" to="440781470_2608558549_1607887657_2608548147" />
	<connection from="440781470_2608558549_1607887657_2608548147" to="440781470_2608558549_1607887657_1079117373" />
	<connection from="440781470_2608558549_1607887657_1079117373" to="440781470_2608558549_1607887657_7704985697" />
	<connection from="440781470_2608558549_1607887657_7704985697" to="440781470_2608558549_1607887657_1259461047" />
	<connection from="440781470_2608558549_1607887657_1259461047" to="440781470_2608558549_1607887657_7704985687" />
	<connection from="440781470_2608558549_1607887657_7704985687" to="440781470_2608558549_1607887657_2420090591" />
	<connection from="440781470_2608558549_1607887657_2420090591" to="440781470_2608558549_1607887657_7704985694" />
	<connection from="440781470_2608558549_1607887657_7704985694" to="440781470_2608558549_1607887657_7704929379" />
	<connection from="440781470_2608558549_1607887657_7704929379" to="440781470_2608558549_1607887657_7704985698" />
	<connection from="440781470_2608558549_1607887657_7704985698" to="440781470_2608558549_1607887657_1607887662" />
	<connection from="440781470_2608558549_1607887657_1607887662" to="440781470_2608558549_1607887657_1607887659" />
	<connection from="440781470_2608558549_1607887657_1607887659" to="440781470_1607887657_1607887655_1607887657" />
	<connection from="440781470_2608558549_1607887657_1607887659" to="254943989_1607887657_2607177317_1607887657" />
	<connection from="440781470_2608558549_1607887657_1607887659" to="440781470_1607887657_2608558549_1607887657" />
	<connection from="93097625_1079117368_256168306_1079117368" to="93097625_1079117368_256168306_1607887637" />
	<connection from="93097625_1079117368_256168306_1607887637" to="93097625_1079117368_256168306_1607887634" />
	<connection from="93097625_1079117368_256168306_1607887634" to="93097625_256168306_1079117370_256168306" />
	<connection from="95446970_403318286_403318393_403318286" to="95446970_403318286_403318393_403318289" />
	<connection from="95446970_403318286_403318393_403318289" to="95446970_403318286_403318393_1572271482" />
	<connection from="95446970_403318286_403318393_1572271482" to="95446970_403318286_403318393_1572271483" />
	<connection from="95446970_403318286_403318393_1572271483" to="95446970_403318286_403318393_1572271484" />
	<connection from="95446970_403318286_403318393_1572271484" to="95446970_403318286_403318393_403318293" />
	<connection from="95446970_403318286_403318393_403318293" to="95446970_403318286_403318393_1572271486" />
	<connection from="95446970_403318286_403318393_1572271486" to="95446970_403318286_403318393_403318296" />
	<connection from="95446970_403318286_403318393_403318296" to="95446970_403318286_403318393_1572271488" />
	<connection from="95446970_403318286_403318393_1572271488" to="95446970_403318286_403318393_403318300" />
	<connection from="95446970_403318286_403318393_403318300" to="95446970_403318286_403318393_1572271487" />
	<connection from="95446970_403318286_403318393_1572271487" to="95446970_403318286_403318393_403318304" />
	<connection from="95446970_403318286_403318393_403318304" to="95446970_403318286_403318393_1572271485" />
	<connection from="95446970_403318286_403318393_1572271485" to="95446970_403318286_403318393_403318307" />
	<connection from="95446970_403318286_403318393_403318307" to="95446970_403318286_403318393_403318309" />
	<connection from="95446970_403318286_403318393_403318309" to="95446970_403318286_403318393_403318312" />
	<connection from="95446970_403318286_403318393_403318312" to="95446970_403318286_403318393_403318315" />
	<connection from="95446970_403318286_403318393_403318315" to="95446970_403318286_403318393_403318317" />
	<connection from="95446970_403318286_403318393_403318317" to="95446970_403318286_403318393_403318321" />
	<connection from="95446970_403318286_403318393_403318321" to="95446970_403318286_403318393_403318326" />
	<connection from="95446970_403318286_403318393_403318326" to="95446970_403318286_403318393_403318329" />
	<connection from="95446970_403318286_403318393_403318329" to="95446970_403318286_403318393_2607138395" />
	<connection from="95446970_403318286_403318393_2607138395" to="95446970_403318286_403318393_403318333" />
	<connection from="95446970_403318286_403318393_403318333" to="95446970_403318286_403318393_3673155964" />
	<connection from="95446970_403318286_403318393_3673155964" to="95446970_403318286_403318393_403318336" />
	<connection from="95446970_403318286_403318393_403318336" to="95446970_403318286_403318393_403318339" />
	<connection from="95446970_403318286_403318393_403318339" to="95446970_403318286_403318393_403318342" />
	<connection from="95446970_403318286_403318393_403318342" to="95446970_403318286_403318393_5073949916" />
	<connection from="95446970_403318286_403318393_5073949916" to="95446970_403318286_403318393_1572271489" />
	<connection from="95446970_403318286_403318393_1572271489" to="95446970_403318286_403318393_403318345" />
	<connection from="95446970_403318286_403318393_403318345" to="95446970_403318286_403318393_1572271490" />
	<connection from="95446970_403318286_403318393_1572271490" to="95446970_403318286_403318393_403318348" />
	<connection from="95446970_403318286_403318393_403318348" to="95446970_403318286_403318393_403318350" />
	<connection from="95446970_403318286_403318393_403318350" to="95446970_403318286_403318393_403318352" />
	<connection from="95446970_403318286_403318393_403318352" to="95446970_403318286_403318393_1572271491" />
	<connection from="95446970_403318286_403318393_1572271491" to="95446970_403318286_403318393_403318355" />
	<connection from="95446970_403318286_403318393_403318355" to="95446970_403318286_403318393_2253017306" />
	<connection from="95446970_403318286_403318393_2253017306" to="95446970_403318286_403318393_403318356" />
	<connection from="95446970_403318286_403318393_403318356" to="95446970_403318286_403318393_403318360" />
	<connection from="95446970_403318286_403318393_403318360" to="95446970_403318286_403318393_403318363" />
	<connection from="95446970_403318286_403318393_403318363" to="95446970_403318286_403318393_403318366" />
	<connection from="95446970_403318286_403318393_403318366" to="95446970_403318286_403318393_403318367" />
	<connection from="95446970_403318286_403318393_403318367" to="95446970_403318286_403318393_403318370" />
	<connection from="95446970_403318286_403318393_403318370" to="95446970_403318286_403318393_403318372" />
	<connection from="95446970_403318286_403318393_403318372" to="95446970_403318286_403318393_403318373" />
	<connection from="95446970_403318286_403318393_403318373" to="95446970_403318286_403318393_403318375" />
	<connection from="95446970_403318286_403318393_403318375" to="95446970_403318286_403318393_403318384" />
	<connection from="95446970_403318286_403318393_403318384" to="95446970_403318286_403318393_403318387" />
	<connection from="95446970_403318286_403318393_403318387" to="95446970_403318286_403318393_403318388" />
	<connection from="95446970_403318286_403318393_403318388" to="95446970_403318286_403318393_403318390" />
	<connection from="95446970_403318286_403318393_403318390" to="255477862_403318393_2253017341_403318393" />
	<connection from="95446970_403318286_403318393_403318390" to="95446970_403318393_403318286_403318393" />
	<connection from="95446970_403318286_403318393_403318390" to="255477862_403318393_1607887615_403318393" />
	<connection from="255477862_403318393_2253017341_403318393" to="255477862_2253017341_403318393_2253017341" />
	<connection from="24220360_244686247_244685818_244686247" to="24220360_244686247_244685818_244686245" />
	<connection from="24220360_244686247_244685818_244686245" to="24220360_244686247_244685818_244685821" />
	<connection from="24220360_244686247_244685818_244685821" to="24220360_244686247_244685818_2611647458" />
	<connection from="24220360_244686247_244685818_2611647458" to="24220360_244686247_244685818_2611647446" />
	<connection from="24220360_244686247_244685818_2611647446" to="24220360_244686247_244685818_2611647444" />
	<connection from="24220360_244686247_244685818_2611647444" to="24220360_244686247_244685818_2611647464" />
	<connection from="24220360_244686247_244685818_2611647464" to="24220360_244686247_244685818_2611647460" />
	<connection from="24220360_244686247_244685818_2611647460" to="24220360_244686247_244685818_244685820" />
	<connection from="24220360_244686247_244685818_244685820" to="24220360_244686247_244685818_2611647470" />
	<connection from="24220360_244686247_244685818_2611647470" to="24220360_244686247_244685818_2611647456" />
	<connection from="24220360_244686247_244685818_2611647456" to="24220360_244685818_244686247_244685818" />
	<connection from="93097626_1079117368_256168308_1079117368" to="93097626_1079117368_256168308_1607887643" />
	<connection from="93097626_1079117368_256168308_1607887643" to="147588162_256168308_256168326_256168308" />
	<connection from="147588173_1607887632_1607887655_1607887632" to="147588173_1607887632_1607887655_1607887639" />
	<connection from="147588173_1607887632_1607887655_1607887639" to="440781470_1607887655_1607887657_1607887655" />
	<connection from="95446970_403318393_403318286_403318393" to="95446970_403318393_403318286_403318390" />
	<connection from="95446970_403318393_403318286_403318390" to="95446970_403318393_403318286_403318388" />
	<connection from="95446970_403318393_403318286_403318388" to="95446970_403318393_403318286_403318387" />
	<connection from="95446970_403318393_403318286_403318387" to="95446970_403318393_403318286_403318384" />
	<connection from="95446970_403318393_403318286_403318384" to="95446970_403318393_403318286_403318375" />
	<connection from="95446970_403318393_403318286_403318375" to="95446970_403318393_403318286_403318373" />
	<connection from="95446970_403318393_403318286_403318373" to="95446970_403318393_403318286_403318372" />
	<connection from="95446970_403318393_403318286_403318372" to="95446970_403318393_403318286_403318370" />
	<connection from="95446970_403318393_403318286_403318370" to="95446970_403318393_403318286_403318367" />
	<connection from="95446970_403318393_403318286_403318367" to="95446970_403318393_403318286_403318366" />
	<connection from="95446970_403318393_403318286_403318366" to="95446970_403318393_403318286_403318363" />
	<connection from="95446970_403318393_403318286_403318363" to="95446970_403318393_403318286_403318360" />
	<connection from="95446970_403318393_403318286_403318360" to="95446970_403318393_403318286_403318356" />
	<connection from="95446970_403318393_403318286_403318356" to="95446970_403318393_403318286_2253017306" />
	<connection from="95446970_403318393_403318286_2253017306" to="95446970_403318393_403318286_403318355" />
	<connection from="95446970_403318393_403318286_403318355" to="95446970_403318393_403318286_1572271491" />
	<connection from="95446970_403318393_403318286_1572271491" to="95446970_403318393_403318286_403318352" />
	<connection from="95446970_403318393_403318286_403318352" to="95446970_403318393_403318286_403318350" />
	<connection from="95446970_403318393_403318286_403318350" to="95446970_403318393_403318286_403318348" />
	<connection from="95446970_403318393_403318286_403318348" to="95446970_403318393_403318286_1572271490" />
	<connection from="95446970_403318393_403318286_1572271490" to="95446970_403318393_403318286_403318345" />
	<connection from="95446970_403318393_403318286_403318345" to="95446970_403318393_403318286_1572271489" />
	<connection from="95446970_403318393_403318286_1572271489" to="95446970_403318393_403318286_5073949916" />
	<connection from="95446970_403318393_403318286_5073949916" to="95446970_403318393_403318286_403318342" />
	<connection from="95446970_403318393_403318286_403318342" to="95446970_403318393_403318286_403318339" />
	<connection from="95446970_403318393_403318286_403318339" to="95446970_403318393_403318286_403318336" />
	<connection from="95446970_403318393_403318286_403318336" to="95446970_403318393_403318286_3673155964" />
	<connection from="95446970_403318393_403318286_3673155964" to="95446970_403318393_403318286_403318333" />
	<connection from="95446970_403318393_403318286_403318333" to="95446970_403318393_403318286_2607138395" />
	<connection from="95446970_403318393_403318286_2607138395" to="95446970_403318393_403318286_403318329" />
	<connection from="95446970_403318393_403318286_403318329" to="95446970_403318393_403318286_403318326" />
	<connection from="95446970_403318393_403318286_403318326" to="95446970_403318393_403318286_403318321" />
	<connection from="95446970_403318393_403318286_403318321" to="95446970_403318393_403318286_403318317" />
	<connection from="95446970_403318393_403318286_403318317" to="95446970_403318393_403318286_403318315" />
	<connection from="95446970_403318393_403318286_403318315" to="95446970_403318393_403318286_403318312" />
	<connection from="95446970_403318393_403318286_403318312" to="95446970_403318393_403318286_403318309" />
	<connection from="95446970_403318393_403318286_403318309" to="95446970_403318393_403318286_403318307" />
	<connection from="95446970_403318393_403318286_403318307" to="95446970_403318393_403318286_1572271485" />
	<connection from="95446970_403318393_403318286_1572271485" to="95446970_403318393_403318286_403318304" />
	<connection from="95446970_403318393_403318286_403318304" to="95446970_403318393_403318286_1572271487" />
	<connection from="95446970_403318393_403318286_1572271487" to="95446970_403318393_403318286_403318300" />
	<connection from="95446970_403318393_403318286_403318300" to="95446970_403318393_403318286_1572271488" />
	<connection from="95446970_403318393_403318286_1572271488" to="95446970_403318393_403318286_403318296" />
	<connection from="95446970_403318393_403318286_403318296" to="95446970_403318393_403318286_1572271486" />
	<connection from="95446970_403318393_403318286_1572271486" to="95446970_403318393_403318286_403318293" />
	<connection from="95446970_403318393_403318286_403318293" to="95446970_403318393_403318286_1572271484" />
	<connection from="95446970_403318393_403318286_1572271484" to="95446970_403318393_403318286_1572271483" />
	<connection from="95446970_403318393_403318286_1572271483" to="95446970_403318393_403318286_1572271482" />
	<connection from="95446970_403318393_403318286_1572271482" to="95446970_403318393_403318286_403318289" />
	<connection from="95446970_403318393_403318286_403318289" to="95446970_403318286_403318393_403318286" />
	<connection from="24220360_244685818_244686247_244685818" to="24220360_244685818_244686247_2611647456" />
	<connection from="24220360_244685818_244686247_2611647456" to="24220360_244685818_244686247_2611647470" />
	<connection from="24220360_244685818_244686247_2611647470" to="24220360_244685818_244686247_244685820" />
	<connection from="24220360_244685818_244686247_244685820" to="24220360_244685818_244686247_2611647460" />
	<connection from="24220360_244685818_244686247_2611647460" to="24220360_244685818_244686247_2611647464" />
	<connection from="24220360_244685818_244686247_2611647464" to="24220360_244685818_244686247_2611647444" />
	<connection from="24220360_244685818_244686247_2611647444" to="24220360_244685818_244686247_2611647446" />
	<connection from="24220360_244685818_244686247_2611647446" to="24220360_244685818_244686247_2611647458" />
	<connection from="24220360_244685818_244686247_2611647458" to="24220360_244685818_244686247_244685821" />
	<connection from="24220360_244685818_244686247_244685821" to="24220360_244685818_244686247_244686245" />
	<connection from="24220360_244685818_244686247_244686245" to="24220360_244686247_244685818_244686247" />
	<connection from="24220360_244685818_244686247_244686245" to="147588163_244686247_1079117366_244686247" />
	<connection from="93097628_1079117370_1607887615_1079117370" to="93097628_1079117370_1607887615_1607887626" />
	<connection from="93097628_1079117370_1607887615_1607887626" to="255477862_1607887615_403318393_1607887615" />
	<connection from="147588163_244686247_1079117366_244686247" to="147588163_244686247_1079117366_1607887617" />
	<connection from="147588163_244686247_1079117366_1607887617" to="93097625_1079117366_1607887632_1079117366" />
	<connection from="93097625_1079117366_1607887632_1079117366" to="93097625_1607887632_1079117367_1607887632" />
	<connection from="93097625_1079117366_1607887632_1079117366" to="147588173_1607887632_1607887655_1607887632" />
	<connection from="255477862_403318393_1607887615_403318393" to="255477862_1607887615_403318393_1607887615" />
	<connection from="255477862_403318393_1607887615_403318393" to="255477868_1607887615_1079117365_1607887615" />
	<connection from="23645635_1607887619_244686247_1607887619" to="23645635_1607887619_244686247_1607887611" />
	<connection from="23645635_1607887619_244686247_1607887611" to="24220360_244686247_244685818_244686247" />
</connections>
