<?xml version="1.0" ?>
<!-- Generated by VSimRTI -->
<routes>
	<vType id="default" length="7.5" maxSpeed="50" minGap="2.0" carFollowModel="Krauss" accel="0.80" decel="4.5" sigma="0.5" tau="1"/>
	<route id="11" edges="147588162_256168308_256168326_256168311 147588162_256168308_256168326_256168312 147588162_256168308_256168326_256168313 147588162_256168308_256168326_256168314 147588162_256168308_256168326_256168315 147588162_256168308_256168326_256168316 147588162_256168308_256168326_256168317 147588162_256168308_256168326_2608149381 147588162_256168308_256168326_256168318 147588162_256168308_256168326_256168319 147588162_256168308_256168326_256168320 147588162_256168308_256168326_2611647454 147588162_256168308_256168326_256168321 147588162_256168308_256168326_256168322 147588162_256168308_256168326_6044868523 147588162_256168308_256168326_256168323 147588162_256168308_256168326_256168324 147588162_256168308_256168326_256168325 147588162_256168326_256168308_256168326 147588162_256168326_256168308_256168325 147588162_256168326_256168308_256168324 147588162_256168326_256168308_256168323 147588162_256168326_256168308_6044868523 147588162_256168326_256168308_256168322 147588162_256168326_256168308_256168321 147588162_256168326_256168308_2611647454 147588162_256168326_256168308_256168320 147588162_256168326_256168308_256168319 147588162_256168326_256168308_256168318 147588162_256168326_256168308_2608149381 147588162_256168326_256168308_256168317 147588162_256168326_256168308_256168316 147588162_256168326_256168308_256168315 147588162_256168326_256168308_256168314 147588162_256168326_256168308_256168313 147588162_256168326_256168308_256168312 147588162_256168326_256168308_256168311 147588162_256168326_256168308_256168310 147588162_256168326_256168308_256168309 147588164_256168308_256168306_256168308 147588164_256168308_256168306_256168307 93097625_256168306_1079117370_256168306 93097628_1079117370_1607887615_1079117370 93097628_1079117370_1607887615_1607887626 255477862_1607887615_403318393_1607887615 95446970_403318393_403318286_403318393 95446970_403318393_403318286_403318390 95446970_403318393_403318286_403318388 95446970_403318393_403318286_403318387 95446970_403318393_403318286_403318384 95446970_403318393_403318286_403318375 95446970_403318393_403318286_403318373" />
	<route id="1" edges="147588162_256168308_256168326_256168313 147588162_256168308_256168326_256168314 147588162_256168308_256168326_256168315 147588162_256168308_256168326_256168316 147588162_256168308_256168326_256168317 147588162_256168308_256168326_2608149381 147588162_256168308_256168326_256168318 147588162_256168308_256168326_256168319 147588162_256168308_256168326_256168320 147588162_256168308_256168326_2611647454 147588162_256168308_256168326_256168321 147588162_256168308_256168326_256168322 147588162_256168308_256168326_6044868523 147588162_256168308_256168326_256168323 147588162_256168308_256168326_256168324 147588162_256168308_256168326_256168325 147588162_256168326_256168308_256168326 147588162_256168326_256168308_256168325 147588162_256168326_256168308_256168324 147588162_256168326_256168308_256168323 147588162_256168326_256168308_6044868523 147588162_256168326_256168308_256168322 147588162_256168326_256168308_256168321 147588162_256168326_256168308_2611647454 147588162_256168326_256168308_256168320 147588162_256168326_256168308_256168319 147588162_256168326_256168308_256168318 147588162_256168326_256168308_2608149381 147588162_256168326_256168308_256168317 147588162_256168326_256168308_256168316 147588162_256168326_256168308_256168315 147588162_256168326_256168308_256168314 147588162_256168326_256168308_256168313 147588162_256168326_256168308_256168312 147588162_256168326_256168308_256168311 147588162_256168326_256168308_256168310 147588162_256168326_256168308_256168309 147588164_256168308_256168306_256168308 147588164_256168308_256168306_256168307 93097625_256168306_1079117370_256168306 93097628_1079117370_1607887615_1079117370 93097628_1079117370_1607887615_1607887626 255477862_1607887615_403318393_1607887615 255477862_403318393_2253017341_403318393" />
	<route id="2" edges="147588162_256168308_256168326_256168313 147588162_256168308_256168326_256168314 147588162_256168308_256168326_256168315 147588162_256168308_256168326_256168316 147588162_256168308_256168326_256168317 147588162_256168308_256168326_2608149381 147588162_256168308_256168326_256168318 147588162_256168308_256168326_256168319 147588162_256168308_256168326_256168320 147588162_256168308_256168326_2611647454 147588162_256168308_256168326_256168321 147588162_256168308_256168326_256168322 147588162_256168308_256168326_6044868523 147588162_256168308_256168326_256168323 147588162_256168308_256168326_256168324 147588162_256168308_256168326_256168325 147588162_256168326_256168308_256168326 147588162_256168326_256168308_256168325 147588162_256168326_256168308_256168324 147588162_256168326_256168308_256168323 147588162_256168326_256168308_6044868523 147588162_256168326_256168308_256168322 147588162_256168326_256168308_256168321 147588162_256168326_256168308_2611647454 147588162_256168326_256168308_256168320 147588162_256168326_256168308_256168319 147588162_256168326_256168308_256168318 147588162_256168326_256168308_2608149381 147588162_256168326_256168308_256168317 147588162_256168326_256168308_256168316 147588162_256168326_256168308_256168315 147588162_256168326_256168308_256168314 147588162_256168326_256168308_256168313 147588162_256168326_256168308_256168312 147588162_256168326_256168308_256168311 147588162_256168326_256168308_256168310 147588162_256168326_256168308_256168309 147588164_256168308_256168306_256168308 147588164_256168308_256168306_256168307 93097625_256168306_1079117370_256168306 93097625_1079117370_1079117365_1079117370 93097625_1079117370_1079117365_1607887631 93097625_1079117370_1079117365_1607887623 93097625_1079117365_1607887619_1079117365 23645635_1607887619_244686247_1607887619 23645635_1607887619_244686247_1607887611 24220360_244686247_244685818_244686247 24220360_244686247_244685818_244686245 24220360_244686247_244685818_244685821 24220360_244686247_244685818_2611647458 24220360_244686247_244685818_2611647446 24220360_244686247_244685818_2611647444 24220360_244686247_244685818_2611647464 24220360_244686247_244685818_2611647460 24220360_244686247_244685818_244685820 24220360_244686247_244685818_2611647470 24220360_244686247_244685818_2611647456 24220360_244685818_244686247_244685818 24220360_244685818_244686247_2611647456 24220360_244685818_244686247_2611647470 24220360_244685818_244686247_244685820 24220360_244685818_244686247_2611647460 24220360_244685818_244686247_2611647464 24220360_244685818_244686247_2611647444 24220360_244685818_244686247_2611647446" />
	<route id="3" edges="147588162_256168308_256168326_256168313 147588162_256168308_256168326_256168314 147588162_256168308_256168326_256168315 147588162_256168308_256168326_256168316 147588162_256168308_256168326_256168317 147588162_256168308_256168326_2608149381 147588162_256168308_256168326_256168318 147588162_256168308_256168326_256168319 147588162_256168308_256168326_256168320 147588162_256168308_256168326_2611647454 147588162_256168308_256168326_256168321 147588162_256168308_256168326_256168322 147588162_256168308_256168326_6044868523 147588162_256168308_256168326_256168323 147588162_256168308_256168326_256168324 147588162_256168308_256168326_256168325 147588162_256168326_256168308_256168326 147588162_256168326_256168308_256168325 147588162_256168326_256168308_256168324 147588162_256168326_256168308_256168323 147588162_256168326_256168308_6044868523 147588162_256168326_256168308_256168322 147588162_256168326_256168308_256168321 147588162_256168326_256168308_2611647454 147588162_256168326_256168308_256168320 147588162_256168326_256168308_256168319 147588162_256168326_256168308_256168318 147588162_256168326_256168308_2608149381 147588162_256168326_256168308_256168317 147588162_256168326_256168308_256168316 147588162_256168326_256168308_256168315 147588162_256168326_256168308_256168314 147588162_256168326_256168308_256168313 147588162_256168326_256168308_256168312 147588162_256168326_256168308_256168311 147588162_256168326_256168308_256168310 147588162_256168326_256168308_256168309 147588164_256168308_256168306_256168308 147588164_256168308_256168306_256168307 93097625_256168306_1079117370_256168306 93097625_1079117370_1079117365_1079117370 93097625_1079117370_1079117365_1607887631 93097625_1079117370_1079117365_1607887623 93097625_1079117365_1607887619_1079117365 93097625_1607887619_1079117366_1607887619 93097625_1607887619_1079117366_1607887621 93097625_1607887619_1079117366_1607887624 93097625_1079117366_1607887632_1079117366 147588173_1607887632_1607887655_1607887632 147588173_1607887632_1607887655_1607887639 440781470_1607887655_1607887657_1607887655 440781470_1607887657_2608558549_1607887657 440781470_1607887657_2608558549_1607887659 440781470_1607887657_2608558549_1607887662 440781470_1607887657_2608558549_7704985698 440781470_1607887657_2608558549_7704929379 440781470_1607887657_2608558549_7704985694 440781470_1607887657_2608558549_2420090591 440781470_1607887657_2608558549_7704985687 440781470_1607887657_2608558549_1259461047 440781470_1607887657_2608558549_7704985697 440781470_1607887657_2608558549_1079117373 440781470_1607887657_2608558549_2608548147 440781470_1607887657_2608558549_2608548047 440781470_1607887657_2608558549_2608548183" />
	<route id="4" edges="255477862_2253017341_403318393_2253017341 255477862_403318393_1607887615_403318393 255477868_1607887615_1079117365_1607887615 255477868_1607887615_1079117365_2611647450 255477868_1607887615_1079117365_2611647452 93097625_1079117365_1607887619_1079117365 23645635_1607887619_244686247_1607887619 23645635_1607887619_244686247_1607887611 24220360_244686247_244685818_244686247 24220360_244686247_244685818_244686245 24220360_244686247_244685818_244685821 24220360_244686247_244685818_2611647458 24220360_244686247_244685818_2611647446 24220360_244686247_244685818_2611647444 24220360_244686247_244685818_2611647464 24220360_244686247_244685818_2611647460 24220360_244686247_244685818_244685820 24220360_244686247_244685818_2611647470 24220360_244686247_244685818_2611647456 24220360_244685818_244686247_244685818 24220360_244685818_244686247_2611647456 24220360_244685818_244686247_2611647470 24220360_244685818_244686247_244685820 24220360_244685818_244686247_2611647460 24220360_244685818_244686247_2611647464 24220360_244685818_244686247_2611647444 24220360_244685818_244686247_2611647446 24220360_244685818_244686247_2611647458" />
	<route id="5" edges="255477862_2253017341_403318393_2253017341 255477862_403318393_1607887615_403318393 255477868_1607887615_1079117365_1607887615 255477868_1607887615_1079117365_2611647450 255477868_1607887615_1079117365_2611647452 93097625_1079117365_1607887619_1079117365 93097625_1607887619_1079117366_1607887619 93097625_1607887619_1079117366_1607887621 93097625_1607887619_1079117366_1607887624 93097625_1079117366_1607887632_1079117366 147588173_1607887632_1607887655_1607887632 147588173_1607887632_1607887655_1607887639 440781470_1607887655_1607887657_1607887655 440781470_1607887657_2608558549_1607887657 440781470_1607887657_2608558549_1607887659 440781470_1607887657_2608558549_1607887662 440781470_1607887657_2608558549_7704985698 440781470_1607887657_2608558549_7704929379 440781470_1607887657_2608558549_7704985694 440781470_1607887657_2608558549_2420090591 440781470_1607887657_2608558549_7704985687 440781470_1607887657_2608558549_1259461047 440781470_1607887657_2608558549_7704985697 440781470_1607887657_2608558549_1079117373 440781470_1607887657_2608558549_2608548147 440781470_1607887657_2608558549_2608548047 440781470_1607887657_2608558549_2608548183 440781470_2608558549_1607887657_2608558549 440781470_2608558549_1607887657_2608548183 440781470_2608558549_1607887657_2608548047 440781470_2608558549_1607887657_2608548147 440781470_2608558549_1607887657_1079117373 440781470_2608558549_1607887657_7704985697 440781470_2608558549_1607887657_1259461047 440781470_2608558549_1607887657_7704985687 440781470_2608558549_1607887657_2420090591 440781470_2608558549_1607887657_7704985694 440781470_2608558549_1607887657_7704929379 440781470_2608558549_1607887657_7704985698 440781470_2608558549_1607887657_1607887662" />
	<route id="6" edges="255477862_2253017341_403318393_2253017341 255477862_403318393_1607887615_403318393 255477868_1607887615_1079117365_1607887615 255477868_1607887615_1079117365_2611647450 255477868_1607887615_1079117365_2611647452 93097625_1079117365_1607887619_1079117365 93097625_1607887619_1079117366_1607887619 93097625_1607887619_1079117366_1607887621 93097625_1607887619_1079117366_1607887624 93097625_1079117366_1607887632_1079117366 93097625_1607887632_1079117367_1607887632 93097625_1607887632_1079117367_1607887633 93097625_1607887632_1079117367_1607887636 93097625_1079117367_1079117368_1079117367 93097626_1079117368_256168308_1079117368 93097626_1079117368_256168308_1607887643 147588162_256168308_256168326_256168308 147588162_256168308_256168326_256168309 147588162_256168308_256168326_256168310" />
	<route id="7" edges="24220360_244685818_244686247_244685821 24220360_244685818_244686247_244686245 147588163_244686247_1079117366_244686247 147588163_244686247_1079117366_1607887617 93097625_1079117366_1607887632_1079117366 147588173_1607887632_1607887655_1607887632 147588173_1607887632_1607887655_1607887639 440781470_1607887655_1607887657_1607887655 440781470_1607887657_2608558549_1607887657 440781470_1607887657_2608558549_1607887659 440781470_1607887657_2608558549_1607887662 440781470_1607887657_2608558549_7704985698 440781470_1607887657_2608558549_7704929379 440781470_1607887657_2608558549_7704985694 440781470_1607887657_2608558549_2420090591 440781470_1607887657_2608558549_7704985687 440781470_1607887657_2608558549_1259461047 440781470_1607887657_2608558549_7704985697 440781470_1607887657_2608558549_1079117373 440781470_1607887657_2608558549_2608548147 440781470_1607887657_2608558549_2608548047 440781470_1607887657_2608558549_2608548183 440781470_2608558549_1607887657_2608558549 440781470_2608558549_1607887657_2608548183 440781470_2608558549_1607887657_2608548047 440781470_2608558549_1607887657_2608548147 440781470_2608558549_1607887657_1079117373 440781470_2608558549_1607887657_7704985697 440781470_2608558549_1607887657_1259461047 440781470_2608558549_1607887657_7704985687 440781470_2608558549_1607887657_2420090591 440781470_2608558549_1607887657_7704985694 440781470_2608558549_1607887657_7704929379 440781470_2608558549_1607887657_7704985698 440781470_2608558549_1607887657_1607887662" />
	<route id="8" edges="24220360_244685818_244686247_244685821 24220360_244685818_244686247_244686245 147588163_244686247_1079117366_244686247 147588163_244686247_1079117366_1607887617 93097625_1079117366_1607887632_1079117366 93097625_1607887632_1079117367_1607887632 93097625_1607887632_1079117367_1607887633 93097625_1607887632_1079117367_1607887636 93097625_1079117367_1079117368_1079117367 93097626_1079117368_256168308_1079117368 93097626_1079117368_256168308_1607887643 147588162_256168308_256168326_256168308 147588162_256168308_256168326_256168309 147588162_256168308_256168326_256168310" />
	<route id="9" edges="24220360_244685818_244686247_244685821 24220360_244685818_244686247_244686245 147588163_244686247_1079117366_244686247 147588163_244686247_1079117366_1607887617 93097625_1079117366_1607887632_1079117366 93097625_1607887632_1079117367_1607887632 93097625_1607887632_1079117367_1607887633 93097625_1607887632_1079117367_1607887636 93097625_1079117367_1079117368_1079117367 93097625_1079117368_256168306_1079117368 93097625_1079117368_256168306_1607887637 93097625_1079117368_256168306_1607887634 93097625_256168306_1079117370_256168306 93097628_1079117370_1607887615_1079117370 93097628_1079117370_1607887615_1607887626 255477862_1607887615_403318393_1607887615 95446970_403318393_403318286_403318393 95446970_403318393_403318286_403318390 95446970_403318393_403318286_403318388 95446970_403318393_403318286_403318387 95446970_403318393_403318286_403318384 95446970_403318393_403318286_403318375 95446970_403318393_403318286_403318373" />
	<route id="10" edges="95446970_403318393_403318286_403318372 95446970_403318393_403318286_403318370 95446970_403318393_403318286_403318367 95446970_403318393_403318286_403318366 95446970_403318393_403318286_403318363 95446970_403318393_403318286_403318360 95446970_403318393_403318286_403318356 95446970_403318393_403318286_2253017306 95446970_403318393_403318286_403318355 95446970_403318393_403318286_1572271491 95446970_403318393_403318286_403318352 95446970_403318393_403318286_403318350 95446970_403318393_403318286_403318348 95446970_403318393_403318286_1572271490 95446970_403318393_403318286_403318345 95446970_403318393_403318286_1572271489 95446970_403318393_403318286_5073949916 95446970_403318393_403318286_403318342 95446970_403318393_403318286_403318339 95446970_403318393_403318286_403318336 95446970_403318393_403318286_3673155964 95446970_403318393_403318286_403318333 95446970_403318393_403318286_2607138395 95446970_403318393_403318286_403318329 95446970_403318393_403318286_403318326 95446970_403318393_403318286_403318321 95446970_403318393_403318286_403318317 95446970_403318393_403318286_403318315 95446970_403318393_403318286_403318312 95446970_403318393_403318286_403318309 95446970_403318393_403318286_403318307 95446970_403318393_403318286_1572271485 95446970_403318393_403318286_403318304 95446970_403318393_403318286_1572271487 95446970_403318393_403318286_403318300 95446970_403318393_403318286_1572271488 95446970_403318393_403318286_403318296 95446970_403318393_403318286_1572271486 95446970_403318393_403318286_403318293 95446970_403318393_403318286_1572271484 95446970_403318393_403318286_1572271483 95446970_403318393_403318286_1572271482 95446970_403318393_403318286_403318289 95446970_403318286_403318393_403318286 95446970_403318286_403318393_403318289 95446970_403318286_403318393_1572271482 95446970_403318286_403318393_1572271483 95446970_403318286_403318393_1572271484 95446970_403318286_403318393_403318293 95446970_403318286_403318393_1572271486 95446970_403318286_403318393_403318296 95446970_403318286_403318393_1572271488 95446970_403318286_403318393_403318300 95446970_403318286_403318393_1572271487 95446970_403318286_403318393_403318304 95446970_403318286_403318393_1572271485 95446970_403318286_403318393_403318307 95446970_403318286_403318393_403318309 95446970_403318286_403318393_403318312 95446970_403318286_403318393_403318315 95446970_403318286_403318393_403318317 95446970_403318286_403318393_403318321 95446970_403318286_403318393_403318326 95446970_403318286_403318393_403318329 95446970_403318286_403318393_2607138395 95446970_403318286_403318393_403318333 95446970_403318286_403318393_3673155964 95446970_403318286_403318393_403318336 95446970_403318286_403318393_403318339 95446970_403318286_403318393_403318342 95446970_403318286_403318393_5073949916 95446970_403318286_403318393_1572271489 95446970_403318286_403318393_403318345 95446970_403318286_403318393_1572271490 95446970_403318286_403318393_403318348 95446970_403318286_403318393_403318350 95446970_403318286_403318393_403318352 95446970_403318286_403318393_1572271491 95446970_403318286_403318393_403318355 95446970_403318286_403318393_2253017306 95446970_403318286_403318393_403318356 95446970_403318286_403318393_403318360 95446970_403318286_403318393_403318363 95446970_403318286_403318393_403318366 95446970_403318286_403318393_403318367 95446970_403318286_403318393_403318370 95446970_403318286_403318393_403318372 95446970_403318286_403318393_403318373 95446970_403318286_403318393_403318375 95446970_403318286_403318393_403318384 95446970_403318286_403318393_403318387 95446970_403318286_403318393_403318388 95446970_403318286_403318393_403318390 255477862_403318393_1607887615_403318393 255477868_1607887615_1079117365_1607887615 255477868_1607887615_1079117365_2611647450 255477868_1607887615_1079117365_2611647452 93097625_1079117365_1607887619_1079117365 93097625_1607887619_1079117366_1607887619 93097625_1607887619_1079117366_1607887621 93097625_1607887619_1079117366_1607887624 93097625_1079117366_1607887632_1079117366 93097625_1607887632_1079117367_1607887632 93097625_1607887632_1079117367_1607887633 93097625_1607887632_1079117367_1607887636 93097625_1079117367_1079117368_1079117367 93097626_1079117368_256168308_1079117368 93097626_1079117368_256168308_1607887643 147588162_256168308_256168326_256168308 147588162_256168308_256168326_256168309 147588162_256168308_256168326_256168310" />
</routes>