<?xml version="1.0" encoding="UTF-8"?>

<!-- generated on Mon Jul 20 22:51:58 2020 by Eclipse SUMO netconvert Version 1.2.0
<configuration xmlns:xsi="http://www.w3.org/2001/XMLSchema-instance" xsi:noNamespaceSchemaLocation="http://sumo.dlr.de/xsd/netconvertConfiguration.xsd">

    <input>
        <node-files value="/home/vsimrti/scenarios/ids/sumo/gualtar21/gualtar21.nod.xml"/>
        <edge-files value="/home/vsimrti/scenarios/ids/sumo/gualtar21/gualtar21.edg.xml"/>
        <connection-files value="/home/vsimrti/scenarios/ids/sumo/gualtar21/gualtar21.con.xml"/>
    </input>

    <output>
        <output-file value="/home/vsimrti/scenarios/ids/sumo/gualtar21/gualtar21.net.xml"/>
    </output>

</configuration>
-->

<net version="1.1" junctionCornerDetail="5" limitTurnSpeed="5.50" xmlns:xsi="http://www.w3.org/2001/XMLSchema-instance" xsi:noNamespaceSchemaLocation="http://sumo.dlr.de/xsd/net_file.xsd">

    <location netOffset="-503032.64,-4285947.05" convBoundary="0.00,0.00,2989.85,2832.55" origBoundary="503032.64,4285947.05,506022.48,4288779.60" projParameter="!"/>

    <edge id=":1079117365_0" function="internal">
        <lane id=":1079117365_0_0" index="0" speed="13.89" length="2.99" shape="1948.22,931.66 1948.95,931.77 1949.46,931.83 1949.97,931.83 1950.70,931.72"/>
        <lane id=":1079117365_0_1" index="1" speed="13.89" length="2.99" shape="1947.85,934.84 1948.87,934.97 1949.58,935.05 1950.29,935.03 1951.30,934.86"/>
    </edge>
    <edge id=":1079117365_2" function="internal">
        <lane id=":1079117365_2_0" index="0" speed="13.89" length="4.14" shape="1946.34,933.41 1947.54,932.70 1948.41,932.27 1949.33,932.00 1950.70,931.72"/>
        <lane id=":1079117365_2_1" index="1" speed="13.89" length="4.14" shape="1948.02,936.14 1948.92,935.60 1949.58,935.28 1950.27,935.07 1951.30,934.86"/>
    </edge>
    <edge id=":1079117366_0" function="internal">
        <lane id=":1079117366_0_0" index="0" speed="13.89" length="2.99" shape="1971.68,942.31 1971.55,943.05 1971.47,943.57 1971.46,944.08 1971.53,944.83"/>
        <lane id=":1079117366_0_1" index="1" speed="13.89" length="2.99" shape="1968.51,941.84 1968.35,942.85 1968.26,943.55 1968.25,944.25 1968.36,945.26"/>
    </edge>
    <edge id=":1079117366_2" function="internal">
        <lane id=":1079117366_2_0" index="0" speed="13.14" length="4.35" shape="1969.84,940.16 1970.62,941.43 1971.06,942.36 1971.31,943.36 1971.53,944.83"/>
        <lane id=":1079117366_2_1" index="1" speed="11.26" length="4.35" shape="1967.13,941.86 1967.70,942.79 1968.02,943.46 1968.20,944.19 1968.36,945.26"/>
    </edge>
    <edge id=":1079117367_0" function="internal">
        <lane id=":1079117367_0_0" index="0" speed="10.72" length="9.22" shape="1961.86,969.35 1960.05,967.68 1958.85,966.31 1957.50,965.39 1955.25,965.12"/>
        <lane id=":1079117367_0_1" index="1" speed="11.97" length="9.22" shape="1963.76,966.77 1961.44,964.75 1959.82,963.18 1958.02,962.19 1955.15,961.92"/>
    </edge>
    <edge id=":1079117367_2" function="internal">
        <lane id=":1079117367_2_0" index="0" speed="13.89" length="7.28" shape="1963.94,962.68 1961.47,963.81 1959.74,964.53 1957.93,964.93 1955.25,965.12"/>
        <lane id=":1079117367_2_1" index="1" speed="13.89" length="7.28" shape="1960.40,960.75 1958.92,961.38 1957.86,961.71 1956.76,961.85 1955.15,961.92"/>
    </edge>
    <edge id=":1079117368_0" function="internal">
        <lane id=":1079117368_0_0" index="0" speed="7.89" length="2.62" shape="1955.05,965.12 1954.30,965.21 1953.81,965.40 1953.35,965.70 1952.70,966.14"/>
    </edge>
    <edge id=":1079117368_1" function="internal">
        <lane id=":1079117368_1_0" index="0" speed="10.04" length="4.36" shape="1955.05,965.12 1951.05,963.40"/>
    </edge>
    <edge id=":1079117368_2" function="internal">
        <lane id=":1079117368_2_0" index="0" speed="13.89" length="5.26" shape="1955.05,965.12 1953.32,965.15 1952.13,965.06 1950.97,964.77 1949.33,964.21"/>
        <lane id=":1079117368_2_1" index="1" speed="13.89" length="5.26" shape="1954.95,961.92 1953.57,961.95 1952.62,961.87 1951.70,961.64 1950.39,961.19"/>
    </edge>
    <edge id=":1079117370_0" function="internal">
        <lane id=":1079117370_0_0" index="0" speed="10.72" length="8.26" shape="1938.29,951.21 1937.56,949.03 1936.43,947.83 1934.87,946.88 1932.86,945.43"/>
    </edge>
    <edge id=":1079117370_1" function="internal">
        <lane id=":1079117370_1_0" index="0" speed="11.27" length="9.17" shape="1938.29,951.21 1937.90,948.50 1937.57,946.57 1936.77,944.91 1934.95,943.02"/>
    </edge>
    <edge id=":1079117370_2" function="internal">
        <lane id=":1079117370_2_0" index="0" speed="13.89" length="8.87" shape="1938.29,951.21 1937.87,948.42 1937.88,946.46 1938.29,944.52 1939.08,941.79"/>
        <lane id=":1079117370_2_1" index="1" speed="13.89" length="8.87" shape="1941.44,950.63 1941.09,948.27 1941.12,946.61 1941.48,944.98 1942.16,942.66"/>
    </edge>
    <edge id=":1079117373_0" function="internal">
        <lane id=":1079117373_0_0" index="0" speed="13.89" length="0.31" shape="2869.14,2346.75 2868.97,2346.49"/>
    </edge>
    <edge id=":1079117373_1" function="internal">
        <lane id=":1079117373_1_0" index="0" speed="13.89" length="0.28" shape="2871.65,2344.74 2871.80,2344.98"/>
    </edge>
    <edge id=":1259461047_0" function="internal">
        <lane id=":1259461047_0_0" index="0" speed="13.89" length="0.31" shape="2570.76,1890.85 2570.59,1890.60"/>
    </edge>
    <edge id=":1259461047_1" function="internal">
        <lane id=":1259461047_1_0" index="0" speed="13.89" length="0.29" shape="2573.28,1888.86 2573.43,1889.10"/>
    </edge>
    <edge id=":1572271482_0" function="internal">
        <lane id=":1572271482_0_0" index="0" speed="13.89" length="0.73" shape="11.02,55.58 10.91,55.40 10.84,55.27 10.78,55.13 10.70,54.93"/>
    </edge>
    <edge id=":1572271482_1" function="internal">
        <lane id=":1572271482_1_0" index="0" speed="13.89" length="0.24" shape="13.66,53.72 13.69,53.78 13.71,53.83 13.73,53.87 13.77,53.93"/>
    </edge>
    <edge id=":1572271483_0" function="internal">
        <lane id=":1572271483_0_0" index="0" speed="13.89" length="0.87" shape="19.81,70.03 19.64,69.84 19.53,69.70 19.43,69.55 19.30,69.33"/>
    </edge>
    <edge id=":1572271483_1" function="internal">
        <lane id=":1572271483_1_0" index="0" speed="13.89" length="0.29" shape="22.04,67.68 22.09,67.76 22.12,67.81 22.15,67.85 22.21,67.92"/>
    </edge>
    <edge id=":1572271484_0" function="internal">
        <lane id=":1572271484_0_0" index="0" speed="13.89" length="0.80" shape="29.34,80.75 29.16,80.60 29.03,80.50 28.92,80.38 28.77,80.20"/>
    </edge>
    <edge id=":1572271484_1" function="internal">
        <lane id=":1572271484_1_0" index="0" speed="13.89" length="0.27" shape="31.17,78.09 31.22,78.15 31.26,78.19 31.30,78.22 31.36,78.27"/>
    </edge>
    <edge id=":1572271485_0" function="internal">
        <lane id=":1572271485_0_0" index="0" speed="13.89" length="0.10" shape="136.14,94.03 136.06,94.06"/>
    </edge>
    <edge id=":1572271485_1" function="internal">
        <lane id=":1572271485_1_0" index="0" speed="13.89" length="0.10" shape="135.15,90.99 135.07,91.02"/>
    </edge>
    <edge id=":1572271486_0" function="internal">
        <lane id=":1572271486_0_0" index="0" speed="13.89" length="0.71" shape="53.01,96.61 52.81,96.53 52.68,96.47 52.55,96.41 52.36,96.31"/>
    </edge>
    <edge id=":1572271486_1" function="internal">
        <lane id=":1572271486_1_0" index="0" speed="13.89" length="0.24" shape="53.91,93.51 53.98,93.54 54.02,93.56 54.06,93.58 54.13,93.61"/>
    </edge>
    <edge id=":1572271487_0" function="internal">
        <lane id=":1572271487_0_0" index="0" speed="13.89" length="0.54" shape="102.94,102.65 102.78,102.68 102.67,102.70 102.56,102.71 102.40,102.72"/>
    </edge>
    <edge id=":1572271487_1" function="internal">
        <lane id=":1572271487_1_0" index="0" speed="13.89" length="0.18" shape="102.14,99.53 102.19,99.53 102.23,99.52 102.26,99.52 102.31,99.51"/>
    </edge>
    <edge id=":1572271488_0" function="internal">
        <lane id=":1572271488_0_0" index="0" speed="13.89" length="0.76" shape="77.44,103.40 77.21,103.39 77.06,103.38 76.91,103.35 76.68,103.31"/>
    </edge>
    <edge id=":1572271488_1" function="internal">
        <lane id=":1572271488_1_0" index="0" speed="13.89" length="0.25" shape="77.30,100.17 77.37,100.19 77.42,100.19 77.47,100.20 77.55,100.20"/>
    </edge>
    <edge id=":1572271489_0" function="internal">
        <lane id=":1572271489_0_0" index="0" speed="13.89" length="0.10" shape="981.65,156.71 981.58,156.68"/>
    </edge>
    <edge id=":1572271489_1" function="internal">
        <lane id=":1572271489_1_0" index="0" speed="13.89" length="0.10" shape="982.76,153.71 982.69,153.68"/>
    </edge>
    <edge id=":1572271490_0" function="internal">
        <lane id=":1572271490_0_0" index="0" speed="13.89" length="0.19" shape="1094.75,197.98 1094.70,197.95 1094.67,197.93 1094.64,197.91 1094.58,197.88"/>
    </edge>
    <edge id=":1572271490_1" function="internal">
        <lane id=":1572271490_1_0" index="0" speed="13.89" length="0.58" shape="1095.95,194.99 1096.11,195.06 1096.21,195.12 1096.31,195.18 1096.46,195.27"/>
    </edge>
    <edge id=":1572271491_0" function="internal">
        <lane id=":1572271491_0_0" index="0" speed="13.89" length="0.44" shape="1155.45,235.89 1155.32,235.85 1155.24,235.82 1155.15,235.78 1155.03,235.73"/>
    </edge>
    <edge id=":1572271491_1" function="internal">
        <lane id=":1572271491_1_0" index="0" speed="13.89" length="0.15" shape="1156.35,232.82 1156.39,232.83 1156.42,232.85 1156.45,232.86 1156.49,232.87"/>
    </edge>
    <edge id=":1607887611_0" function="internal">
        <lane id=":1607887611_0_0" index="0" speed="13.89" length="0.62" shape="1956.68,927.96 1956.75,927.90 1956.79,927.86 1956.84,927.81 1956.89,927.74"/>
        <lane id=":1607887611_0_1" index="1" speed="13.89" length="0.62" shape="1958.78,930.38 1958.99,930.19 1959.12,930.06 1959.25,929.92 1959.42,929.70"/>
    </edge>
    <edge id=":1607887615_0" function="internal">
        <lane id=":1607887615_0_0" index="0" speed="13.89" length="10.21" shape="1923.09,938.93 1920.90,936.92 1919.85,934.93 1918.71,933.13 1916.24,931.70"/>
    </edge>
    <edge id=":1607887615_1" function="internal">
        <lane id=":1607887615_1_0" index="0" speed="13.89" length="8.38" shape="1917.27,928.67 1919.71,928.95 1921.45,928.29 1923.22,927.55 1925.73,927.55"/>
        <lane id=":1607887615_1_1" index="1" speed="13.89" length="8.38" shape="1917.27,928.67 1919.53,929.40 1921.09,929.84 1922.68,930.19 1925.01,930.67"/>
    </edge>
    <edge id=":1607887617_0" function="internal">
        <lane id=":1607887617_0_0" index="0" speed="13.89" length="0.46" shape="1972.69,935.58 1972.67,935.65 1972.66,935.69 1972.65,935.74 1972.64,935.81"/>
        <lane id=":1607887617_0_1" index="1" speed="13.89" length="0.46" shape="1969.62,934.67 1969.56,934.87 1969.53,935.00 1969.50,935.14 1969.47,935.34"/>
    </edge>
    <edge id=":1607887619_0" function="internal">
        <lane id=":1607887619_0_0" index="0" speed="9.15" length="3.81" shape="1950.94,931.67 1952.04,931.44 1952.77,931.18 1953.43,930.76 1954.29,930.04"/>
    </edge>
    <edge id=":1607887619_1" function="internal">
        <lane id=":1607887619_1_0" index="0" speed="10.92" length="5.51" shape="1950.94,931.67 1956.39,932.46"/>
    </edge>
    <edge id=":1607887619_2" function="internal">
        <lane id=":1607887619_2_0" index="0" speed="13.89" length="5.96" shape="1950.94,931.67 1952.85,931.28 1954.19,931.05 1955.53,931.06 1957.44,931.38"/>
        <lane id=":1607887619_2_1" index="1" speed="13.89" length="5.96" shape="1951.54,934.82 1953.09,934.48 1954.18,934.28 1955.26,934.27 1956.80,934.51"/>
    </edge>
    <edge id=":1607887621_0" function="internal">
        <lane id=":1607887621_0_0" index="0" speed="9.19" length="1.26" shape="1960.60,932.02 1961.15,932.14 1961.52,932.26 1961.86,932.44 1962.33,932.74"/>
        <lane id=":1607887621_0_1" index="1" speed="13.89" length="1.26" shape="1959.96,935.16 1960.15,935.20 1960.27,935.23 1960.38,935.30 1960.54,935.40"/>
    </edge>
    <edge id=":1607887623_0" function="internal">
        <lane id=":1607887623_0_0" index="0" speed="10.75" length="1.10" shape="1942.98,935.81 1943.29,935.43 1943.53,935.19 1943.80,934.99 1944.21,934.72"/>
        <lane id=":1607887623_0_1" index="1" speed="13.89" length="1.10" shape="1945.48,937.81 1945.58,937.69 1945.66,937.60 1945.75,937.54 1945.89,937.45"/>
    </edge>
    <edge id=":1607887624_0" function="internal">
        <lane id=":1607887624_0_0" index="0" speed="8.70" length="1.34" shape="1966.45,935.52 1966.93,935.86 1967.25,936.13 1967.51,936.45 1967.83,936.95"/>
        <lane id=":1607887624_0_1" index="1" speed="13.89" length="1.34" shape="1964.66,938.17 1964.82,938.29 1964.92,938.38 1965.01,938.48 1965.12,938.65"/>
    </edge>
    <edge id=":1607887626_0" function="internal">
        <lane id=":1607887626_0_0" index="0" speed="13.89" length="0.51" shape="1931.19,943.98 1931.13,943.94 1931.09,943.90 1931.05,943.87 1930.98,943.83"/>
        <lane id=":1607887626_0_1" index="1" speed="13.89" length="0.51" shape="1933.28,941.57 1933.11,941.42 1932.99,941.32 1932.86,941.24 1932.67,941.12"/>
    </edge>
    <edge id=":1607887631_0" function="internal">
        <lane id=":1607887631_0_0" index="0" speed="9.04" length="1.28" shape="1939.31,940.99 1939.47,940.45 1939.62,940.08 1939.83,939.75 1940.18,939.30"/>
        <lane id=":1607887631_0_1" index="1" speed="13.89" length="1.28" shape="1942.39,941.87 1942.44,941.69 1942.49,941.57 1942.56,941.46 1942.68,941.31"/>
    </edge>
    <edge id=":1607887632_0" function="internal">
        <lane id=":1607887632_0_0" index="0" speed="13.89" length="3.56" shape="1971.82,947.00 1971.94,947.81 1972.05,948.36 1972.19,948.91 1972.42,949.70"/>
        <lane id=":1607887632_0_1" index="1" speed="13.89" length="3.56" shape="1971.82,947.00 1969.34,950.57"/>
    </edge>
    <edge id=":1607887632_2" function="internal">
        <lane id=":1607887632_2_0" index="0" speed="13.20" length="4.34" shape="1971.82,947.00 1972.00,948.47 1972.02,949.50 1971.84,950.51 1971.44,951.94"/>
        <lane id=":1607887632_2_1" index="1" speed="11.32" length="4.34" shape="1968.65,947.42 1968.78,948.50 1968.80,949.24 1968.67,949.98 1968.37,951.02"/>
    </edge>
    <edge id=":1607887633_0" function="internal">
        <lane id=":1607887633_0_0" index="0" speed="8.40" length="1.41" shape="1970.38,955.48 1970.19,956.08 1970.02,956.47 1969.77,956.83 1969.36,957.30"/>
        <lane id=":1607887633_0_1" index="1" speed="13.89" length="1.41" shape="1967.31,954.56 1967.25,954.76 1967.19,954.89 1967.11,955.01 1966.97,955.17"/>
    </edge>
    <edge id=":1607887634_0" function="internal">
        <lane id=":1607887634_0_0" index="0" speed="12.67" length="2.01" shape="1942.92,960.49 1942.57,960.21 1942.35,960.00 1942.15,959.76 1941.90,959.39"/>
        <lane id=":1607887634_0_1" index="1" speed="13.89" length="2.01" shape="1944.89,957.96 1944.35,957.48 1944.06,957.06 1943.82,956.60 1943.44,955.96"/>
    </edge>
    <edge id=":1607887636_0" function="internal">
        <lane id=":1607887636_0_0" index="0" speed="8.58" length="2.56" shape="1965.66,961.45 1965.26,961.89 1964.94,962.17 1964.58,962.39 1964.03,962.64"/>
        <lane id=":1607887636_0_1" index="1" speed="10.37" length="2.56" shape="1963.28,959.32 1962.63,959.92 1962.07,960.18 1961.45,960.36 1960.59,960.67"/>
    </edge>
    <edge id=":1607887637_0" function="internal">
        <lane id=":1607887637_0_0" index="0" speed="13.89" length="3.19" shape="1949.14,964.15 1948.09,963.82 1947.35,963.62 1946.66,963.32 1945.77,962.70"/>
        <lane id=":1607887637_0_1" index="1" speed="13.89" length="3.19" shape="1950.20,961.13 1949.44,960.91 1948.89,960.79 1948.38,960.60 1947.73,960.17"/>
    </edge>
    <edge id=":1607887639_0" function="internal">
        <lane id=":1607887639_0_0" index="0" speed="13.89" length="0.44" shape="1975.00,958.87 1975.01,958.93 1975.03,958.97 1975.04,959.01 1975.07,959.07"/>
        <lane id=":1607887639_0_1" index="1" speed="13.89" length="0.44" shape="1971.92,959.73 1971.97,959.92 1972.01,960.05 1972.06,960.17 1972.14,960.35"/>
    </edge>
    <edge id=":1607887641_0" function="internal">
        <lane id=":1607887641_0_0" index="0" speed="13.89" length="0.26" shape="1962.09,969.52 1961.94,969.41"/>
        <lane id=":1607887641_0_1" index="1" speed="13.89" length="0.26" shape="1964.11,967.04 1963.85,966.83"/>
    </edge>
    <edge id=":1607887643_0" function="internal">
        <lane id=":1607887643_0_0" index="0" speed="13.89" length="0.32" shape="1945.70,970.36 1945.66,970.39 1945.63,970.40 1945.61,970.42 1945.57,970.45"/>
        <lane id=":1607887643_0_1" index="1" speed="13.89" length="0.32" shape="1944.05,967.62 1943.93,967.70 1943.84,967.75 1943.76,967.81 1943.65,967.89"/>
    </edge>
    <edge id=":1607887655_0" function="internal">
        <lane id=":1607887655_0_0" index="0" speed="13.89" length="17.78" shape="1983.42,988.61 1981.27,985.73 1978.65,983.09 1975.26,980.21 1970.82,976.62"/>
        <lane id=":1607887655_0_1" index="1" speed="13.89" length="17.78" shape="1983.42,988.61 1981.62,985.36 1979.73,981.91 1977.05,978.19 1972.84,974.14"/>
    </edge>
    <edge id=":1607887655_2" function="internal">
        <lane id=":1607887655_2_0" index="0" speed="3.65" length="2.51" shape="1983.42,988.61 1983.46,987.17 1983.92,986.40 1984.09,986.38"/>
    </edge>
    <edge id=":1607887655_4" function="internal">
        <lane id=":1607887655_4_0" index="0" speed="3.65" length="2.16" shape="1984.09,986.38 1984.81,986.31 1986.13,986.90"/>
    </edge>
    <edge id=":1607887655_3" function="internal">
        <lane id=":1607887655_3_0" index="0" speed="13.89" length="18.24" shape="1979.75,969.83 1981.91,975.43 1983.30,979.91 1984.51,983.62 1986.13,986.90"/>
    </edge>
    <edge id=":1607887657_0" function="internal">
        <lane id=":1607887657_0_0" index="0" speed="13.89" length="14.68" shape="1999.38,1013.55 1991.42,1001.22"/>
    </edge>
    <edge id=":1607887657_1" function="internal">
        <lane id=":1607887657_1_0" index="0" speed="7.62" length="6.16" shape="1999.38,1013.55 1997.54,1009.61 1997.57,1007.80"/>
    </edge>
    <edge id=":1607887657_2" function="internal">
        <lane id=":1607887657_2_0" index="0" speed="3.65" length="2.34" shape="1999.38,1013.55 1999.40,1012.11 1999.85,1011.33"/>
    </edge>
    <edge id=":1607887657_9" function="internal">
        <lane id=":1607887657_9_0" index="0" speed="7.62" length="9.11" shape="1997.57,1007.80 1997.60,1006.32 1999.58,1003.71 2003.47,1001.75"/>
    </edge>
    <edge id=":1607887657_10" function="internal">
        <lane id=":1607887657_10_0" index="0" speed="3.65" length="2.34" shape="1999.85,1011.33 2000.73,1011.23 2002.06,1011.80"/>
    </edge>
    <edge id=":1607887657_3" function="internal">
        <lane id=":1607887657_3_0" index="0" speed="6.02" length="9.07" shape="2004.49,1004.79 2002.18,1005.95 2001.00,1007.50 2000.96,1009.45 2002.06,1011.80"/>
    </edge>
    <edge id=":1607887657_4" function="internal">
        <lane id=":1607887657_4_0" index="0" speed="8.96" length="14.74" shape="2004.49,1004.79 2000.33,1005.68 1996.76,1005.39 1993.79,1003.90 1991.42,1001.22"/>
    </edge>
    <edge id=":1607887657_5" function="internal">
        <lane id=":1607887657_5_0" index="0" speed="3.65" length="4.67" shape="2004.49,1004.79 2003.10,1004.41 2002.47,1003.78 2002.59,1002.89 2003.47,1001.75"/>
    </edge>
    <edge id=":1607887657_6" function="internal">
        <lane id=":1607887657_6_0" index="0" speed="7.63" length="10.45" shape="1994.12,999.51 1995.76,1001.31 1997.87,1002.29 2000.44,1002.43 2003.47,1001.75"/>
    </edge>
    <edge id=":1607887657_7" function="internal">
        <lane id=":1607887657_7_0" index="0" speed="13.89" length="14.63" shape="1994.12,999.51 2002.06,1011.80"/>
    </edge>
    <edge id=":1607887657_8" function="internal">
        <lane id=":1607887657_8_0" index="0" speed="3.65" length="2.34" shape="1994.12,999.51 1994.09,1000.95 1993.63,1001.71"/>
    </edge>
    <edge id=":1607887657_11" function="internal">
        <lane id=":1607887657_11_0" index="0" speed="3.65" length="2.34" shape="1993.63,1001.71 1992.74,1001.80 1991.42,1001.22"/>
    </edge>
    <edge id=":1607887659_0" function="internal">
        <lane id=":1607887659_0_0" index="0" speed="13.89" length="0.30" shape="2189.80,1303.96 2189.63,1303.71"/>
    </edge>
    <edge id=":1607887659_1" function="internal">
        <lane id=":1607887659_1_0" index="0" speed="13.89" length="0.30" shape="2192.31,1301.96 2192.47,1302.21"/>
    </edge>
    <edge id=":1607887662_0" function="internal">
        <lane id=":1607887662_0_0" index="0" speed="13.89" length="0.29" shape="2265.40,1419.41 2265.24,1419.17"/>
    </edge>
    <edge id=":1607887662_1" function="internal">
        <lane id=":1607887662_1_0" index="0" speed="13.89" length="0.31" shape="2267.92,1417.41 2268.08,1417.67"/>
    </edge>
    <edge id=":2253017306_0" function="internal">
        <lane id=":2253017306_0_0" index="0" speed="13.89" length="0.10" shape="1400.40,325.76 1400.40,325.76"/>
    </edge>
    <edge id=":2253017306_1" function="internal">
        <lane id=":2253017306_1_0" index="0" speed="13.89" length="0.10" shape="1401.86,322.92 1401.86,322.92"/>
    </edge>
    <edge id=":2253017341_0" function="internal">
        <lane id=":2253017341_0_0" index="0" speed="3.65" length="4.67" shape="1134.26,681.01 1133.36,679.88 1133.23,679.00 1133.85,678.36 1135.24,677.96"/>
    </edge>
    <edge id=":2420090591_0" function="internal">
        <lane id=":2420090591_0_0" index="0" speed="13.89" length="0.30" shape="2565.24,1882.33 2565.08,1882.08"/>
    </edge>
    <edge id=":2420090591_1" function="internal">
        <lane id=":2420090591_1_0" index="0" speed="13.89" length="0.30" shape="2567.76,1880.34 2567.92,1880.59"/>
    </edge>
    <edge id=":244685818_0" function="internal">
        <lane id=":244685818_0_0" index="0" speed="3.65" length="4.67" shape="2289.68,365.28 2291.11,365.11 2291.94,365.46 2292.15,366.33 2291.75,367.71"/>
    </edge>
    <edge id=":244685820_0" function="internal">
        <lane id=":244685820_0_0" index="0" speed="13.89" length="0.27" shape="2232.72,433.85 2232.67,433.92 2232.64,433.96 2232.62,434.01 2232.58,434.09"/>
    </edge>
    <edge id=":244685820_1" function="internal">
        <lane id=":244685820_1_0" index="0" speed="13.89" length="0.82" shape="2229.67,432.75 2229.78,432.53 2229.85,432.38 2229.94,432.24 2230.08,432.04"/>
    </edge>
    <edge id=":244685821_0" function="internal">
        <lane id=":244685821_0_0" index="0" speed="13.89" length="0.31" shape="2117.39,636.95 2117.25,637.23"/>
    </edge>
    <edge id=":244685821_1" function="internal">
        <lane id=":244685821_1_0" index="0" speed="13.89" length="0.26" shape="2114.40,635.77 2114.52,635.54"/>
    </edge>
    <edge id=":244686245_0" function="internal">
        <lane id=":244686245_0_0" index="0" speed="13.89" length="0.29" shape="2045.67,776.62 2045.54,776.88"/>
    </edge>
    <edge id=":244686245_1" function="internal">
        <lane id=":244686245_1_0" index="0" speed="13.89" length="0.30" shape="2042.69,775.43 2042.82,775.16"/>
    </edge>
    <edge id=":244686247_0" function="internal">
        <lane id=":244686247_0_0" index="0" speed="13.89" length="24.78" shape="1985.42,894.91 1983.68,899.10 1981.84,904.69 1979.89,911.24 1977.82,918.31"/>
        <lane id=":244686247_0_1" index="1" speed="13.89" length="24.78" shape="1985.42,894.91 1983.20,898.96 1980.30,904.23 1977.30,910.47 1974.75,917.40"/>
    </edge>
    <edge id=":244686247_2" function="internal">
        <lane id=":244686247_2_0" index="0" speed="3.65" length="2.46" shape="1985.42,894.91 1984.16,895.62 1983.27,895.61 1983.20,895.51"/>
    </edge>
    <edge id=":244686247_4" function="internal">
        <lane id=":244686247_4_0" index="0" speed="3.65" length="2.21" shape="1983.20,895.51 1982.74,894.89 1982.57,893.46"/>
    </edge>
    <edge id=":244686247_3" function="internal">
        <lane id=":244686247_3_0" index="0" speed="13.89" length="24.59" shape="1968.11,913.32 1972.64,907.51 1976.79,902.10 1980.22,897.33 1982.57,893.46"/>
    </edge>
    <edge id=":256168306_0" function="internal">
        <lane id=":256168306_0_0" index="0" speed="13.89" length="7.06" shape="1941.84,959.30 1940.38,957.16 1939.47,955.61 1938.87,953.93 1938.33,951.41"/>
        <lane id=":256168306_0_1" index="1" speed="13.89" length="7.06" shape="1943.33,955.80 1942.48,954.46 1942.03,953.47 1941.76,952.40 1941.47,950.83"/>
    </edge>
    <edge id=":256168306_2" function="internal">
        <lane id=":256168306_2_0" index="0" speed="11.66" length="9.56" shape="1935.48,959.20 1936.77,956.97 1937.85,955.42 1938.45,953.82 1938.33,951.41"/>
        <lane id=":256168306_2_1" index="1" speed="12.88" length="9.56" shape="1938.38,960.55 1939.91,957.79 1941.09,955.84 1941.69,953.81 1941.47,950.83"/>
    </edge>
    <edge id=":256168307_0" function="internal">
        <lane id=":256168307_0_0" index="0" speed="13.89" length="0.29" shape="1935.38,959.39 1935.41,959.35"/>
        <lane id=":256168307_0_1" index="1" speed="13.89" length="0.29" shape="1938.07,961.12 1938.14,961.00 1938.20,960.92 1938.25,960.83 1938.31,960.70"/>
    </edge>
    <edge id=":256168308_0" function="internal">
        <lane id=":256168308_0_0" index="0" speed="13.89" length="22.59" shape="1936.63,977.16 1930.87,981.23 1925.73,984.59 1921.42,987.48 1918.15,990.14"/>
    </edge>
    <edge id=":256168308_1" function="internal">
        <lane id=":256168308_1_0" index="0" speed="13.89" length="22.39" shape="1915.91,987.86 1918.65,984.73 1921.60,980.64 1924.90,975.64 1928.68,969.76"/>
        <lane id=":256168308_1_1" index="1" speed="13.89" length="22.39" shape="1915.91,987.86 1919.07,985.00 1922.94,981.51 1927.17,977.10 1931.37,971.49"/>
    </edge>
    <edge id=":256168308_3" function="internal">
        <lane id=":256168308_3_0" index="0" speed="3.65" length="2.49" shape="1915.91,987.86 1917.32,987.59 1918.17,987.88 1918.22,988.02"/>
    </edge>
    <edge id=":256168308_4" function="internal">
        <lane id=":256168308_4_0" index="0" speed="3.65" length="2.19" shape="1918.22,988.02 1918.45,988.73 1918.15,990.14"/>
    </edge>
    <edge id=":256168309_0" function="internal">
        <lane id=":256168309_0_0" index="0" speed="13.89" length="0.31" shape="1887.38,1020.36 1887.16,1020.58"/>
    </edge>
    <edge id=":256168309_1" function="internal">
        <lane id=":256168309_1_0" index="0" speed="13.89" length="0.27" shape="1884.94,1018.27 1885.14,1018.08"/>
    </edge>
    <edge id=":256168310_0" function="internal">
        <lane id=":256168310_0_0" index="0" speed="13.89" length="0.30" shape="1807.61,1096.92 1807.40,1097.12"/>
    </edge>
    <edge id=":256168310_1" function="internal">
        <lane id=":256168310_1_0" index="0" speed="13.89" length="0.30" shape="1805.18,1094.82 1805.40,1094.61"/>
    </edge>
    <edge id=":256168311_0" function="internal">
        <lane id=":256168311_0_0" index="0" speed="13.89" length="0.16" shape="1656.42,1242.46 1656.39,1242.49 1656.36,1242.52 1656.34,1242.54 1656.31,1242.58"/>
    </edge>
    <edge id=":256168311_1" function="internal">
        <lane id=":256168311_1_0" index="0" speed="13.89" length="0.48" shape="1653.87,1240.50 1653.97,1240.39 1654.03,1240.32 1654.10,1240.25 1654.20,1240.15"/>
    </edge>
    <edge id=":256168312_0" function="internal">
        <lane id=":256168312_0_0" index="0" speed="13.89" length="0.15" shape="1632.59,1270.45 1632.56,1270.48 1632.54,1270.50 1632.53,1270.53 1632.50,1270.56"/>
    </edge>
    <edge id=":256168312_1" function="internal">
        <lane id=":256168312_1_0" index="0" speed="13.89" length="0.45" shape="1629.88,1268.73 1629.96,1268.62 1630.01,1268.54 1630.07,1268.47 1630.16,1268.37"/>
    </edge>
    <edge id=":256168313_0" function="internal">
        <lane id=":256168313_0_0" index="0" speed="13.89" length="0.31" shape="1606.61,1307.52 1606.43,1307.77"/>
    </edge>
    <edge id=":256168313_1" function="internal">
        <lane id=":256168313_1_0" index="0" speed="13.89" length="0.29" shape="1603.82,1305.92 1603.99,1305.69"/>
    </edge>
    <edge id=":256168314_0" function="internal">
        <lane id=":256168314_0_0" index="0" speed="13.89" length="0.29" shape="1472.85,1496.35 1472.69,1496.58"/>
    </edge>
    <edge id=":256168314_1" function="internal">
        <lane id=":256168314_1_0" index="0" speed="13.89" length="0.31" shape="1470.06,1494.75 1470.24,1494.50"/>
    </edge>
    <edge id=":256168315_0" function="internal">
        <lane id=":256168315_0_0" index="0" speed="13.89" length="0.28" shape="1412.73,1582.58 1412.57,1582.81"/>
    </edge>
    <edge id=":256168315_1" function="internal">
        <lane id=":256168315_1_0" index="0" speed="13.89" length="0.31" shape="1409.93,1581.01 1410.11,1580.75"/>
    </edge>
    <edge id=":256168316_0" function="internal">
        <lane id=":256168316_0_0" index="0" speed="13.89" length="0.36" shape="1343.34,1684.00 1343.12,1684.29"/>
    </edge>
    <edge id=":256168316_1" function="internal">
        <lane id=":256168316_1_0" index="0" speed="13.89" length="0.12" shape="1340.63,1682.29 1340.70,1682.19"/>
    </edge>
    <edge id=":256168317_0" function="internal">
        <lane id=":256168317_0_0" index="0" speed="13.89" length="0.77" shape="1306.53,1729.99 1306.38,1730.17 1306.28,1730.29 1306.17,1730.40 1306.00,1730.55"/>
    </edge>
    <edge id=":256168317_1" function="internal">
        <lane id=":256168317_1_0" index="0" speed="13.89" length="0.26" shape="1303.86,1728.18 1303.91,1728.13 1303.95,1728.09 1303.98,1728.05 1304.03,1727.99"/>
    </edge>
    <edge id=":256168318_0" function="internal">