<nodes>
	<node id="403318289" x="503038.8095" y="4285986.7638" z="0.0000" type="priority" />
	<node id="403318326" x="503708.9777" y="4285953.5139" z="0.0000" type="priority" />
	<node id="403318329" x="503722.9371" y="4285956.6275" z="0.0000" type="priority" />
	<node id="2607177317" x="505539.1799" y="4286952.2937" z="0.0000" type="priority" />
	<node id="256168324" x="503605.2665" y="4288534.5473" z="0.0000" type="priority" />
	<node id="256168323" x="503614.6578" y="4288521.4575" z="0.0000" type="priority" />
	<node id="256168326" x="503453.0832" y="4288779.6043" z="0.0000" type="priority" />
	<node id="7704985687" x="505599.7707" y="4287829.3678" z="0.0000" type="priority" />
	<node id="256168325" x="503554.2176" y="4288619.6354" z="0.0000" type="priority" />
	<node id="256168320" x="503889.4458" y="4288082.2830" z="0.0000" type="priority" />
	<node id="256168322" x="503811.0322" y="4288205.5174" z="0.0000" type="priority" />
	<node id="256168321" x="503856.6770" y="4288128.9505" z="0.0000" type="priority" />
	<node id="7704985694" x="505598.5119" y="4287827.4250" z="0.0000" type="priority" />
	<node id="403318286" x="503032.6360" y="4285968.1636" z="0.0000" type="priority" />
	<node id="403318321" x="503694.1048" y="4285952.0755" z="0.0000" type="priority" />
	<node id="403318333" x="503739.3897" y="4285963.3264" z="0.0000" type="priority" />
	<node id="2608548047" x="506015.1736" y="4288467.1165" z="0.0000" type="priority" />
	<node id="403318336" x="503921.7177" y="4286063.7938" z="0.0000" type="priority" />
	<node id="256168317" x="504337.7549" y="4287676.2454" z="0.0000" type="priority" />
	<node id="256168316" x="504374.5868" y="4287630.2480" z="0.0000" type="priority" />
	<node id="256168319" x="503936.3434" y="4288040.9378" z="0.0000" type="priority" />
	<node id="403318339" x="503934.3453" y="4286069.9586" z="0.0000" type="priority" />
	<node id="256168318" x="503989.2157" y="4287992.1723" z="0.0000" type="priority" />
	<node id="2253017306" x="504433.7653" y="4286271.3911" z="0.0000" type="priority" />
	<node id="256168313" x="504637.8511" y="4287253.7781" z="0.0000" type="priority" />
	<node id="256168312" x="504663.9127" y="4287216.5754" z="0.0000" type="priority" />
	<node id="256168315" x="504443.9724" y="4287528.8412" z="0.0000" type="priority" />
	<node id="256168314" x="504504.0948" y="4287442.5989" z="0.0000" type="priority" />
	<node id="1607887662" x="505299.2967" y="4287365.4679" z="0.0000" type="priority" />
	<node id="256168311" x="504687.8310" y="4287188.4706" z="0.0000" type="priority" />
	<node id="256168310" x="504839.0314" y="4287042.9182" z="0.0000" type="priority" />
	<node id="1259461047" x="505604.6497" y="4287836.9058" z="0.0000" type="priority" />
	<node id="2611647444" x="505209.2846" y="4286481.7084" z="0.0000" type="priority" />
	<node id="3673155964" x="503768.0513" y="4285979.5076" z="0.0000" type="priority" />
	<node id="403318293" x="503073.6320" y="4286035.2359" z="0.0000" type="priority" />
	<node id="403318296" x="503097.7328" y="4286046.4750" z="0.0000" type="priority" />
	<node id="2607177384" x="505448.5821" y="4286956.2260" z="0.0000" type="priority" />
	<node id="403318300" x="503122.0717" y="4286049.2587" z="0.0000" type="priority" />
	<node id="403318388" x="504895.1830" y="4286741.4024" z="0.0000" type="priority" />
	<node id="1607887655" x="505009.5871" y="4286922.4702" z="0.0000" type="priority" />
	<node id="6044868523" x="503647.0437" y="4288469.3515" z="0.0000" type="priority" />
	<node id="403318304" x="503147.7517" y="4286045.6513" z="0.0000" type="priority" />
	<node id="1607887659" x="505223.6878" y="4287250.0131" z="0.0000" type="priority" />
	<node id="1607887657" x="505028.8899" y="4286952.9093" z="0.0000" type="priority" />
	<node id="403318307" x="503395.3865" y="4285959.0887" z="0.0000" type="priority" />
	<node id="403318309" x="503412.0617" y="4285954.0247" z="0.0000" type="priority" />
	<node id="244685818" x="505323.3539" y="4286313.5484" z="0.0000" type="priority" />
	<node id="2611647446" x="505181.7480" y="4286520.5618" z="0.0000" type="priority" />
	<node id="2611647454" x="503873.6109" y="4288101.4058" z="0.0000" type="priority" />
	<node id="2611647452" x="504977.8863" y="4286883.2017" z="0.0000" type="priority" />
	<node id="2611647450" x="504969.2648" y="4286881.7981" z="0.0000" type="priority" />
	<node id="403318384" x="504873.5953" y="4286664.8560" z="0.0000" type="priority" />
	<node id="403318387" x="504890.7312" y="4286701.2744" z="0.0000" type="priority" />
	<node id="403318312" x="503427.7977" y="4285949.9701" z="0.0000" type="priority" />
	<node id="1607887643" x="504975.5814" y="4286913.4717" z="0.0000" type="priority" />
	<node id="1607887641" x="504997.5985" y="4286912.7199" z="0.0000" type="priority" />
	<node id="2608548147" x="506007.4528" y="4288449.2784" z="0.0000" type="priority" />
	<node id="403318315" x="503440.8293" y="4285947.8452" z="0.0000" type="priority" />
	<node id="403318317" x="503455.4686" y="4285947.0526" z="0.0000" type="priority" />
	<node id="2611647458" x="505169.7920" y="4286540.1728" z="0.0000" type="priority" />
	<node id="2611647456" x="505298.2878" y="4286334.8705" z="0.0000" type="priority" />
	<node id="7704929379" x="505596.6627" y="4287824.5719" z="0.0000" type="priority" />
	<node id="2608149381" x="504024.5163" y="4287959.8213" z="0.0000" type="priority" />
	<node id="2611647464" x="505228.5862" y="4286448.2537" z="0.0000" type="priority" />
	<node id="403318390" x="504889.9326" y="4286784.4873" z="0.0000" type="priority" />
	<node id="2611647460" x="505250.6473" y="4286409.0529" z="0.0000" type="priority" />
	<node id="2607138395" x="503724.9361" y="4285957.4384" z="0.0000" type="priority" />
	<node id="403318393" x="504870.2309" y="4286850.3446" z="0.0000" type="priority" />
	<node id="403318366" x="504562.6739" y="4286336.2569" z="0.0000" type="priority" />
	<node id="1607887633" x="504998.4141" y="4286901.1577" z="0.0000" type="priority" />
	<node id="244686247" x="505006.9927" y="4286860.1612" z="0.0000" type="priority" />
	<node id="403318367" x="504584.3015" y="4286350.3842" z="0.0000" type="priority" />
	<node id="1607887632" x="504999.9035" y="4286896.1763" z="0.0000" type="priority" />
	<node id="1607887631" x="504976.5613" y="4286889.3594" z="0.0000" type="priority" />
	<node id="244686245" x="505076.8156" y="4286723.0736" z="0.0000" type="priority" />
	<node id="1607887637" x="504981.3489" y="4286905.9630" z="0.0000" type="priority" />
	<node id="1607887636" x="504994.7174" y="4286905.3055" z="0.0000" type="priority" />
	<node id="2607177513" x="505039.2093" y="4286949.4537" z="0.0000" type="priority" />
	<node id="1607887634" x="504978.5080" y="4286903.7530" z="0.0000" type="priority" />
	<node id="2611647470" x="505282.6467" y="4286352.9031" z="0.0000" type="priority" />
	<node id="403318360" x="504498.5288" y="4286310.9535" z="0.0000" type="priority" />
	<node id="1607887639" x="505003.1297" y="4286907.6411" z="0.0000" type="priority" />
	<node id="403318363" x="504521.6458" y="4286319.8882" z="0.0000" type="priority" />
	<node id="2607177473" x="505493.9585" y="4286949.0111" z="0.0000" type="priority" />
	<node id="1607887621" x="504992.2798" y="4286883.7766" z="0.0000" type="priority" />
	<node id="244685821" x="505148.5288" y="4286583.4247" z="0.0000" type="priority" />
	<node id="1607887626" x="504966.5844" y="4286887.0784" z="0.0000" type="priority" />
	<node id="2607177469" x="505080.2334" y="4286951.7989" z="0.0000" type="priority" />
	<node id="1607887624" x="504996.3980" y="4286886.5533" z="0.0000" type="priority" />
	<node id="244685820" x="505263.8789" y="4286380.2216" z="0.0000" type="priority" />
	<node id="1079117370" x="504975.1066" y="4286894.4741" z="0.0000" type="priority" />
	<node id="1607887623" x="504979.3623" y="4286885.8658" z="0.0000" type="priority" />
	<node id="1079117373" x="505903.0257" y="4288292.7933" z="0.0000" type="priority" />
	<node id="403318370" x="504670.0641" y="4286420.2760" z="0.0000" type="priority" />
	<node id="403318372" x="504718.5270" y="4286474.5558" z="0.0000" type="priority" />
	<node id="403318373" x="504771.4600" y="4286538.4815" z="0.0000" type="priority" />
	<node id="403318375" x="504835.5699" y="4286617.2839" z="0.0000" type="priority" />
	<node id="1607887611" x="504992.9352" y="4286878.2287" z="0.0000" type="priority" />
	<node id="256168309" x="504918.7907" y="4286966.3783" z="0.0000" type="priority" />
	<node id="403318345" x="504110.9319" y="4286135.4733" z="0.0000" type="priority" />
	<node id="256168306" x="504976.1894" y="4286900.3227" z="0.0000" type="priority" />
	<node id="403318348" x="504137.0291" y="4286149.2133" z="0.0000" type="priority" />
	<node id="1607887615" x="504952.3786" y="4286878.2478" z="0.0000" type="priority" />
	<node id="256168308" x="504963.1810" y="4286922.7741" z="0.0000" type="priority" />
	<node id="256168307" x="504972.2815" y="4286908.6760" z="0.0000" type="priority" />
	<node id="1079117366" x="504999.2114" y="4286891.0381" z="0.0000" type="priority" />
	<node id="1079117365" x="504982.7708" y="4286883.7706" z="0.0000" type="priority" />
	<node id="1079117368" x="504985.5722" y="4286907.4414" z="0.0000" type="priority" />
	<node id="1079117367" x="504990.2485" y="4286907.2890" z="0.0000" type="priority" />
	<node id="5073949916" x="504011.2090" y="4286100.8122" z="0.0000" type="priority" />
	<node id="1607887619" x="504987.6476" y="4286882.8305" z="0.0000" type="priority" />
	<node id="2607177498" x="505372.5750" y="4286964.5300" z="0.0000" type="priority" />
	<node id="1607887617" x="505000.5906" y="4286881.7068" z="0.0000" type="priority" />
	<node id="2608548183" x="506020.3229" y="4288483.8874" z="0.0000" type="priority" />
	<node id="403318342" x="503948.3987" y="4286075.8468" z="0.0000" type="priority" />
	<node id="2253017341" x="504167.3863" y="4286626.5378" z="0.0000" type="priority" />
	<node id="403318355" x="504403.8018" y="4286255.9169" z="0.0000" type="priority" />
	<node id="1572271483" x="503053.4546" y="4286015.8091" z="0.0000" type="priority" />
	<node id="2420090591" x="505599.1369" y="4287828.3908" z="0.0000" type="priority" />
	<node id="403318356" x="504445.5751" y="4286277.4897" z="0.0000" type="priority" />
	<node id="1572271484" x="503062.7780" y="4286026.3989" z="0.0000" type="priority" />
	<node id="1572271482" x="503044.9063" y="4286001.6022" z="0.0000" type="priority" />
	<node id="2607177409" x="505400.0850" y="4286964.0826" z="0.0000" type="priority" />
	<node id="1572271487" x="503135.0853" y="4286048.1652" z="0.0000" type="priority" />
	<node id="1572271488" x="503109.8758" y="4286048.8433" z="0.0000" type="priority" />
	<node id="2607177403" x="505423.4067" y="4286961.7793" z="0.0000" type="priority" />
	<node id="1572271485" x="503168.2431" y="4286039.5785" z="0.0000" type="priority" />
	<node id="1572271486" x="503085.9818" y="4286042.0762" z="0.0000" type="priority" />
	<node id="1572271489" x="504014.8070" y="4286102.2455" z="0.0000" type="priority" />
	<node id="7704985698" x="505587.1218" y="4287809.8399" z="0.0000" type="priority" />
	<node id="7704985697" x="505612.2547" y="4287848.5182" z="0.0000" type="priority" />
	<node id="2607177486" x="505473.2965" y="4286951.1274" z="0.0000" type="priority" />
	<node id="403318350" x="504162.2107" y="4286168.0241" z="0.0000" type="priority" />
	<node id="1572271490" x="504128.0785" y="4286143.5716" z="0.0000" type="priority" />
	<node id="2608558549" x="506022.4825" y="4288489.5816" z="0.0000" type="priority" />
	<node id="403318352" x="504174.2813" y="4286174.9546" z="0.0000" type="priority" />
	<node id="1572271491" x="504188.4644" y="4286181.3870" z="0.0000" type="priority" />
</nodes>
