<connections>
	<connection from="310702247_857488024_2311924063_857488024" to="310702247_857488024_2311924063_869609118" />
	<connection from="310702247_857488024_2311924063_869609118" to="310702247_857488024_2311924063_281754185" />
	<connection from="310702247_857488024_2311924063_281754185" to="310702247_857488024_2311924063_281754186" />
	<connection from="310702247_857488024_2311924063_281754186" to="310702247_857488024_2311924063_2311924086" />
	<connection from="310702247_857488024_2311924063_2311924086" to="310702247_857488024_2311924063_29859970" />
	<connection from="310702247_857488024_2311924063_29859970" to="310702247_857488024_2311924063_940271293" />
	<connection from="310702247_857488024_2311924063_940271293" to="310702247_2311924063_857488024_2311924063" />
	<connection from="310702247_857488024_2311924063_940271293" to="473430062_2311924063_4675484208_2311924063" />
	<connection from="660541343_6184387509_5221899621_6184387509" to="660541343_5221899621_6184387509_5221899621" />
	<connection from="660541343_6184387509_5221899621_6184387509" to="660541342_5221899621_5221889327_5221899621" />
	<connection from="116570245_1313885509_866614488_1313885509" to="116570245_1313885509_866614488_866613837" />
	<connection from="116570245_1313885509_866614488_866613837" to="116570245_1313885509_866614488_2026362890" />
	<connection from="116570245_1313885509_866614488_2026362890" to="116570245_1313885509_866614488_866613502" />
	<connection from="116570245_1313885509_866614488_866613502" to="116570245_1313885509_866614488_2026362862" />
	<connection from="116570245_1313885509_866614488_2026362862" to="116570245_1313885509_866614488_1313885462" />
	<connection from="116570245_1313885509_866614488_1313885462" to="116570249_866614488_866613702_866614488" />
	<connection from="52092909_134845511_134859062_134845511" to="23750759_134859062_257323664_134859062" />
	<connection from="52092909_134845511_134859062_134845511" to="52092909_134859062_134845511_134859062" />
	<connection from="52092909_134845511_134859062_134845511" to="14134205_134859062_134639615_134859062" />
	<connection from="10995578_97949961_97949963_97949961" to="10995578_97949961_97949963_3150247112" />
	<connection from="10995578_97949961_97949963_3150247112" to="241824024_97949963_97949059_97949963" />
	<connection from="10995578_97949961_97949963_3150247112" to="241824024_97949963_97949741_97949963" />
	<connection from="10995578_97949961_97949963_3150247112" to="10995578_97949963_97949961_97949963" />
	<connection from="28962161_279583894_29859974_279583894" to="28962161_279583894_29859974_279583726" />
	<connection from="28962161_279583894_29859974_279583726" to="28962161_29859974_279583894_29859974" />
	<connection from="28962161_279583894_29859974_279583726" to="25648271_29859974_983661367_29859974" />
	<connection from="28962161_279583894_29859974_279583726" to="111656206_29859974_983661361_29859974" />
	<connection from="28962161_279583894_29859974_279583726" to="644762285_29859974_1271558575_29859974" />
	<connection from="9658128_73631554_73659752_73631554" to="9534506_73659752_73659750_73659752" />
	<connection from="9658128_73631554_73659752_73631554" to="9658128_73659752_73631554_73659752" />
	<connection from="9658128_73631554_73659752_73631554" to="9534506_73659752_73659754_73659752" />
	<connection from="5653438_41240746_41240737_41240746" to="5653438_41240737_41240741_41240737" />
	<connection from="5653438_41240746_41240737_41240746" to="5563333_41240737_41240731_41240737" />
	<connection from="5653438_41240746_41240737_41240746" to="5653438_41240737_41240746_41240737" />
	<connection from="27065894_98225851_98225849_98225851" to="11025196_98225849_98226429_98225849" />
	<connection from="27065894_98225851_98225849_98225851" to="27065894_98225849_98225851_98225849" />
	<connection from="27065894_98225851_98225849_98225851" to="27065894_98225849_98225848_98225849" />
	<connection from="10993994_97941041_98042653_97941041" to="10993994_98042653_97941041_98042653" />
	<connection from="10993994_97941041_98042653_97941041" to="11009244_98042653_98042472_98042653" />
	<connection from="10993994_97941041_98042653_97941041" to="10993994_98042653_98040497_98042653" />
	<connection from="15994271_160719469_160724195_160719469" to="15994271_160724195_160722805_160724195" />
	<connection from="15994271_160719469_160724195_160719469" to="15994271_160724195_160719469_160724195" />
	<connection from="15994271_160719469_160724195_160719469" to="15994369_160724195_160724196_160724195" />
	<connection from="15994271_160719469_160724195_160719469" to="15994369_160724195_160724194_160724195" />
	<connection from="50833760_41239986_41239973_41239986" to="50833760_41239986_41239973_3039095543" />
	<connection from="50833760_41239986_41239973_3039095543" to="50833760_41239986_41239973_3039083650" />
	<connection from="50833760_41239986_41239973_3039083650" to="50833760_41239986_41239973_3039083654" />
	<connection from="50833760_41239986_41239973_3039083654" to="50833760_41239986_41239973_3039083657" />
	<connection from="50833760_41239986_41239973_3039083657" to="50833760_41239986_41239973_41239982" />
	<connection from="50833760_41239986_41239973_41239982" to="50833760_41239986_41239973_3039083661" />
	<connection from="50833760_41239986_41239973_3039083661" to="50833760_41239973_41239986_41239973" />
	<connection from="50833760_41239986_41239973_3039083661" to="64508827_41239973_389041221_41239973" />
	<connection from="15743439_157535175_157535178_157535175" to="15743439_157535178_157535181_157535178" />
	<connection from="15743439_157535175_157535178_157535175" to="15743443_157535178_157535162_157535178" />
	<connection from="15743439_157535175_157535178_157535175" to="15743439_157535178_157535175_157535178" />
	<connection from="241594963_41240264_41240283_41240264" to="241594963_41240264_41240283_262166926" />
	<connection from="241594963_41240264_41240283_262166926" to="241594963_41240264_41240283_41240266" />
	<connection from="241594963_41240264_41240283_41240266" to="241594963_41240264_41240283_5840553297" />
	<connection from="241594963_41240264_41240283_5840553297" to="241594963_41240264_41240283_41240269" />
	<connection from="241594963_41240264_41240283_41240269" to="241594963_41240264_41240283_41240272" />
	<connection from="241594963_41240264_41240283_41240272" to="241594963_41240283_41240264_41240283" />
	<connection from="241594963_41240264_41240283_41240272" to="8875459_41240283_64660684_41240283" />
	<connection from="241594963_41240264_41240283_41240272" to="400661004_41240283_4031964984_41240283" />
	<connection from="14133895_134852290_134852292_134852290" to="14133895_134852292_134852294_134852292" />
	<connection from="14133895_134852290_134852292_134852290" to="14134047_134852292_134853967_134852292" />
	<connection from="14133895_134852290_134852292_134852290" to="14133895_134852292_134852290_134852292" />
	<connection from="8162640_41240332_41240325_41240332" to="8162640_41240325_41240315_41240325" />
	<connection from="8162640_41240332_41240325_41240332" to="5563321_41240325_41240343_41240325" />
	<connection from="8162640_41240332_41240325_41240332" to="8162640_41240325_41240332_41240325" />
	<connection from="5563321_41240350_41240297_41240350" to="5563315_41240297_1479170752_41240297" />
	<connection from="5563321_41240350_41240297_41240350" to="5563321_41240297_41240350_41240297" />
	<connection from="5563321_41240350_41240297_41240350" to="5563315_41240297_41240292_41240297" />
	<connection from="14116613_134580604_134581361_134580604" to="14116613_134580604_134581361_134581359" />
	<connection from="14116613_134580604_134581361_134581359" to="14116613_134581361_134580604_134581361" />
	<connection from="14116613_134580604_134581361_134581359" to="33847096_134581361_134587380_134581361" />
	<connection from="14116613_134580604_134581361_134581359" to="33847096_134581361_471975437_134581361" />
	<connection from="9532209_73603958_73601720_73603958" to="9532209_73603958_73601720_73603957" />
	<connection from="9532209_73603958_73601720_73603957" to="9532209_73603958_73601720_853827020" />
	<connection from="9532209_73603958_73601720_853827020" to="9532209_73603958_73601720_73603956" />
	<connection from="9532209_73603958_73601720_73603956" to="9532209_73603958_73601720_73603955" />
	<connection from="9532209_73603958_73601720_73603955" to="9531655_73601720_73609295_73601720" />
	<connection from="9532209_73603958_73601720_73603955" to="9531655_73601720_73631556_73601720" />
	<connection from="9532209_73603958_73601720_73603955" to="9532209_73601720_73603958_73601720" />
	<connection from="10998395_977652306_29768668_977652306" to="11009143_29768668_98041551_29768668" />
	<connection from="10998395_977652306_29768668_977652306" to="113715807_29768668_975152293_29768668" />
	<connection from="10998395_977652306_29768668_977652306" to="10998395_29768668_977652306_29768668" />
	<connection from="10998395_977652306_29768668_977652306" to="11022844_29768668_97950319_29768668" />
	<connection from="15808283_158847492_158847493_158847492" to="15808283_158847492_158847493_2134619931" />
	<connection from="15808283_158847492_158847493_2134619931" to="15808283_158847492_158847493_5162438459" />
	<connection from="15808283_158847492_158847493_5162438459" to="15808283_158847492_158847493_2134619930" />
	<connection from="15808283_158847492_158847493_2134619930" to="15808283_158847493_158847492_158847493" />
	<connection from="15808283_158847492_158847493_2134619930" to="15808297_158847493_387462281_158847493" />
	<connection from="15808283_158847492_158847493_2134619930" to="15808297_158847493_158848192_158847493" />
	<connection from="64386552_41240214_41240204_41240214" to="64386552_41240214_41240204_792270064" />
	<connection from="64386552_41240214_41240204_792270064" to="64386552_41240214_41240204_33965062" />
	<connection from="64386552_41240214_41240204_33965062" to="64386552_41240214_41240204_2407315926" />
	<connection from="64386552_41240214_41240204_2407315926" to="64386552_41240214_41240204_41240209" />
	<connection from="64386552_41240214_41240204_41240209" to="64386552_41240214_41240204_3936632848" />
	<connection from="64386552_41240214_41240204_3936632848" to="64386552_41240204_41240214_41240204" />
	<connection from="64386552_41240214_41240204_3936632848" to="5563314_41240204_41240154_41240204" />
	<connection from="9658611_75661835_75661834_75661835" to="9658611_75661834_75661835_75661834" />
	<connection from="9531655_73631556_73601720_73631556" to="9531655_73601720_73609295_73601720" />
	<connection from="9531655_73631556_73601720_73631556" to="9531655_73601720_73631556_73601720" />
	<connection from="9531655_73631556_73601720_73631556" to="9532209_73601720_73603958_73601720" />
	<connection from="71846222_5280879544_853827090_5280879544" to="71846222_5280879544_853827090_5280879545" />
	<connection from="71846222_5280879544_853827090_5280879545" to="71846222_5280879544_853827090_853827025" />
	<connection from="71846222_5280879544_853827090_853827025" to="6196094_853827090_51558635_853827090" />
	<connection from="71846222_5280879544_853827090_853827025" to="6196094_853827090_51558509_853827090" />
	<connection from="71846222_5280879544_853827090_853827025" to="71846222_853827090_5280879544_853827090" />
	<connection from="186469717_1971759905_3290027486_1971759905" to="186469717_1971759905_3290027486_267922858" />
	<connection from="186469717_1971759905_3290027486_267922858" to="322230102_3290027486_49395182_3290027486" />
	<connection from="15808283_158847492_158847491_158847492" to="15808283_158847491_158846996_158847491" />
	<connection from="15808283_158847492_158847491_158847492" to="15808283_158847491_158847492_158847491" />
	<connection from="15808283_158847492_158847491_158847492" to="15808290_158847491_158848087_158847491" />
	<connection from="15744374_157563031_157564457_157563031" to="15744374_157563031_157564457_2614624070" />
	<connection from="15744374_157563031_157564457_2614624070" to="15744374_157564457_157564458_157564457" />
	<connection from="15744374_157563031_157564457_2614624070" to="15744374_157564457_157563031_157564457" />
	<connection from="15744374_157563031_157564457_2614624070" to="255782335_157564457_157566050_157564457" />
	<connection from="15744374_157563031_157564457_2614624070" to="255782335_157564457_2614643913_157564457" />
	<connection from="23995154_260162571_260162582_260162571" to="23995154_260162582_260162571_260162582" />
	<connection from="14134369_134861059_134862553_134861059" to="14134369_134862553_134861059_134862553" />
	<connection from="15743439_157535175_157535172_157535175" to="15743439_157535172_157535167_157535172" />
	<connection from="15743439_157535175_157535172_157535175" to="15743439_157535172_157535175_157535172" />
	<connection from="15743439_157535175_157535172_157535175" to="15743445_157535172_157535156_157535172" />
	<connection from="9658611_75661835_75661837_75661835" to="9658611_75661835_75661837_2509637418" />
	<connection from="9658611_75661835_75661837_2509637418" to="14122045_75661837_134680815_75661837" />
	<connection from="9658611_75661835_75661837_2509637418" to="9658611_75661837_75661835_75661837" />
	<connection from="9658611_75661835_75661837_2509637418" to="9658611_75661837_75661838_75661837" />
	<connection from="15807951_158840869_158842345_158840869" to="15807915_158842345_29768617_158842345" />
	<connection from="15807951_158840869_158842345_158840869" to="15807951_158842345_158840869_158842345" />
	<connection from="15807951_158840869_158842345_158840869" to="15807915_158842345_158839146_158842345" />
	<connection from="47431897_603698751_157571608_603698751" to="47431897_603698751_157571608_503700382" />
	<connection from="47431897_603698751_157571608_503700382" to="47431897_603698751_157571608_157571607" />
	<connection from="47431897_603698751_157571608_157571607" to="9659083_157571608_157569366_157571608" />
	<connection from="47431897_603698751_157571608_157571607" to="15744641_157571608_157572234_157571608" />
	<connection from="47431897_603698751_157571608_157571607" to="47431897_157571608_603698751_157571608" />
	<connection from="47431897_603698751_157571608_157571607" to="9659083_157571608_75670656_157571608" />
	<connection from="23995154_260162571_260162579_260162571" to="50833761_260162579_260162575_260162579" />
	<connection from="23995154_260162571_260162579_260162571" to="50833761_260162579_648320960_260162579" />
	<connection from="23995154_260162571_260162579_260162571" to="23995154_260162579_260162571_260162579" />
	<connection from="11009393_98039259_98043799_98039259" to="11009393_98039259_98043799_411294352" />
	<connection from="11009393_98039259_98043799_411294352" to="11009393_98043799_98043932_98043799" />
	<connection from="11009393_98039259_98043799_411294352" to="11009393_98043799_98039259_98043799" />
	<connection from="11009393_98039259_98043799_411294352" to="11009381_98043799_98043798_98043799" />
	<connection from="10952112_3136099531_29768657_3136099531" to="10952112_3136099531_29768657_3087640007" />
	<connection from="10952112_3136099531_29768657_3087640007" to="10952112_3136099531_29768657_51553667" />
	<connection from="10952112_3136099531_29768657_51553667" to="10952112_3136099531_29768657_2301888683" />
	<connection from="10952112_3136099531_29768657_2301888683" to="25642130_29768657_276848702_29768657" />
	<connection from="10952112_3136099531_29768657_2301888683" to="10989838_29768657_97602623_29768657" />
	<connection from="10952112_3136099531_29768657_2301888683" to="308319506_29768657_3136099529_29768657" />
	<connection from="10950037_97602304_97602618_97602304" to="10950037_97602304_97602618_3083049686" />
	<connection from="10950037_97602304_97602618_3083049686" to="52960250_97602618_97602623_97602618" />
	<connection from="10950037_97602304_97602618_3083049686" to="10950131_97602618_97603363_97602618" />
	<connection from="10950037_97602304_97602618_3083049686" to="10950037_97602618_97602304_97602618" />
	<connection from="52960250_97602623_97602618_97602623" to="52960250_97602623_97602618_2279008234" />
	<connection from="52960250_97602623_97602618_2279008234" to="52960250_97602623_97602618_97602619" />
	<connection from="52960250_97602623_97602618_97602619" to="52960250_97602623_97602618_3083049685" />
	<connection from="52960250_97602623_97602618_3083049685" to="52960250_97602618_97602623_97602618" />
	<connection from="52960250_97602623_97602618_3083049685" to="10950131_97602618_97603363_97602618" />
	<connection from="52960250_97602623_97602618_3083049685" to="10950037_97602618_97602304_97602618" />
	<connection from="25628306_279322382_279322359_279322382" to="25628306_279322382_279322359_2311924030" />
	<connection from="25628306_279322382_279322359_2311924030" to="25628306_279322382_279322359_279322381" />
	<connection from="25628306_279322382_279322359_279322381" to="25628306_279322382_279322359_279322380" />
	<connection from="25628306_279322382_279322359_279322380" to="25628306_279322382_279322359_279322379" />
	<connection from="25628306_279322382_279322359_279322379" to="25628306_279322382_279322359_279322378" />
	<connection from="25628306_279322382_279322359_279322378" to="25628306_279322382_279322359_279322377" />
	<connection from="25628306_279322382_279322359_279322377" to="25628306_279322382_279322359_595752836" />
	<connection from="25628306_279322382_279322359_595752836" to="25628306_279322359_279322382_279322359" />
	<connection from="25628306_279322382_279322359_595752836" to="234163101_279322359_279322382_279322359" />
	<connection from="25628306_279322382_279322359_595752836" to="234163101_279322359_29859960_279322359" />
	<connection from="340594642_279322446_3478398039_279322446" to="340594642_3478398039_279322446_3478398039" />
	<connection from="10995578_97949961_97949960_97949961" to="10995646_97949960_97949738_97949960" />
	<connection from="10995578_97949961_97949960_97949961" to="10995578_97949960_97949961_97949960" />
	<connection from="10995578_97949961_97949960_97949961" to="10995646_97949960_97949056_97949960" />
	<connection from="15807806_158834460_158837959_158834460" to="15807806_158837959_158834460_158837959" />
	<connection from="15807806_158834460_158837959_158834460" to="15807883_158837959_158837958_158837959" />
	<connection from="15807806_158834460_158837959_158834460" to="15807883_158837959_158837392_158837959" />
	<connection from="15807806_158834460_158837959_158834460" to="15807806_158837959_157575368_158837959" />
	<connection from="23756365_3136099533_97542730_3136099533" to="23756365_97542730_3136099533_97542730" />
	<connection from="23756365_3136099533_97542730_3136099533" to="308319524_97542730_3033571594_97542730" />
	<connection from="458350632_1499243086_97949740_1499243086" to="241824025_97949740_97949961_97949740" />
	<connection from="458350632_1499243086_97949740_1499243086" to="10995524_97949740_97949738_97949740" />
	<connection from="458350632_1499243086_97949740_1499243086" to="10995524_97949740_97949741_97949740" />
	<connection from="458350632_1499243086_97949740_1499243086" to="458350632_97949740_1499243086_97949740" />
	<connection from="50834549_364129463_648364362_364129463" to="50834549_364129463_648364362_4796105238" />
	<connection from="50834549_364129463_648364362_4796105238" to="50834549_364129463_648364362_42180816" />
	<connection from="50834549_364129463_648364362_42180816" to="50834549_364129463_648364362_447858889" />
	<connection from="50834549_364129463_648364362_447858889" to="50834549_648364362_364129463_648364362" />
	<connection from="50834549_364129463_648364362_447858889" to="50834550_648364362_648364357_648364362" />
	<connection from="5993642_3694407238_41240756_3694407238" to="5993642_3694407238_41240756_288331823" />
	<connection from="5993642_3694407238_41240756_288331823" to="5993642_41240756_41240753_41240756" />
	<connection from="5993642_3694407238_41240756_288331823" to="5653434_41240756_41240731_41240756" />
	<connection from="5993642_3694407238_41240756_288331823" to="5993642_41240756_3694407238_41240756" />
	<connection from="15744417_157566050_157566051_157566050" to="15744417_157566051_157566053_157566051" />
	<connection from="15744417_157566050_157566051_157566050" to="15744760_157566051_157564458_157566051" />
	<connection from="15744417_157566050_157566051_157566050" to="15744417_157566051_157566050_157566051" />
	<connection from="604039155_49895713_49895716_49895713" to="604039155_49895713_49895716_2629972777" />
	<connection from="604039155_49895713_49895716_2629972777" to="604039155_49895713_49895716_2629972781" />
	<connection from="604039155_49895713_49895716_2629972781" to="604039155_49895713_49895716_2629972784" />
	<connection from="604039155_49895713_49895716_2629972784" to="604039155_49895713_49895716_2629972788" />
	<connection from="604039155_49895713_49895716_2629972788" to="604039155_49895713_49895716_2629972790" />
	<connection from="604039155_49895713_49895716_2629972790" to="604039155_49895713_49895716_2629972787" />
	<connection from="604039155_49895713_49895716_2629972787" to="604039155_49895713_49895716_2630059652" />
	<connection from="604039155_49895713_49895716_2630059652" to="604039155_49895713_49895716_49895714" />
	<connection from="604039155_49895713_49895716_49895714" to="604039155_49895713_49895716_49895715" />
	<connection from="604039155_49895713_49895716_49895715" to="604039155_49895713_49895716_2629972805" />
	<connection from="604039155_49895713_49895716_2629972805" to="604039155_49895713_49895716_2629972804" />
	<connection from="604039155_49895713_49895716_2629972804" to="298198124_49895716_49829206_49895716" />
	<connection from="604039155_49895713_49895716_2629972804" to="539692999_49895716_49829203_49895716" />
	<connection from="604039155_49895713_49895716_2629972804" to="604039155_49895716_49895713_49895716" />
	<connection from="284566578_41239986_2882913628_41239986" to="284566578_41239986_2882913628_3039095542" />
	<connection from="284566578_41239986_2882913628_3039095542" to="284566578_41239986_2882913628_3826524606" />
	<connection from="284566578_41239986_2882913628_3826524606" to="8162640_2882913628_41240332_2882913628" />
	<connection from="284566578_41239986_2882913628_3826524606" to="284566578_2882913628_41240286_2882913628" />
	<connection from="284566578_41239986_2882913628_3826524606" to="284566579_2882913628_260147840_2882913628" />
	<connection from="284566578_41239986_2882913628_3826524606" to="284566578_2882913628_41239986_2882913628" />
	<connection from="11015366_29768672_97967306_29768672" to="11015366_29768672_97967306_3149851109" />
	<connection from="11015366_29768672_97967306_3149851109" to="11015366_29768672_97967306_3996884861" />
	<connection from="11015366_29768672_97967306_3996884861" to="11015366_29768672_97967306_3149851085" />
	<connection from="11015366_29768672_97967306_3149851085" to="11015317_97967306_98103015_97967306" />
	<connection from="11015366_29768672_97967306_3149851085" to="11015366_97967306_29768672_97967306" />
	<connection from="11015366_29768672_97967306_3149851085" to="11015366_97967306_97967307_97967306" />
	<connection from="5993642_41240756_3694407238_41240756" to="5993642_41240756_3694407238_288331823" />
	<connection from="5993642_41240756_3694407238_288331823" to="644574686_3694407238_29859949_3694407238" />
	<connection from="5993642_41240756_3694407238_288331823" to="5993642_3694407238_41240756_3694407238" />
	<connection from="111283468_258077570_289031315_258077570" to="111283468_258077570_289031315_88954038" />
	<connection from="111283468_258077570_289031315_88954038" to="111283468_258077570_289031315_638559172" />
	<connection from="111283468_258077570_289031315_638559172" to="111283468_258077570_289031315_260072202" />
	<connection from="111283468_258077570_289031315_260072202" to="111283468_258077570_289031315_6233791920" />
	<connection from="111283468_258077570_289031315_6233791920" to="111283468_258077570_289031315_6233791930" />
	<connection from="111283468_258077570_289031315_6233791930" to="111283468_258077570_289031315_373782110" />
	<connection from="111283468_258077570_289031315_373782110" to="111283468_258077570_289031315_4668269992" />
	<connection from="111283468_258077570_289031315_4668269992" to="111283476_289031315_289031316_289031315" />
	<connection from="111283468_258077570_289031315_4668269992" to="111283468_289031315_258077570_289031315" />
	<connection from="111283468_258077570_289031315_4668269992" to="23815679_289031315_289031318_289031315" />
	<connection from="23994425_260147840_260147845_260147840" to="23994424_260147845_260147843_260147845" />
	<connection from="23994425_260147840_260147845_260147840" to="23994425_260147845_260147849_260147845" />
	<connection from="23994425_260147840_260147845_260147840" to="23994425_260147845_260147840_260147845" />
	<connection from="14134177_134858046_134845511_134858046" to="14134177_134858046_134845511_252326337" />
	<connection from="14134177_134858046_134845511_252326337" to="52092909_134845511_134859062_134845511" />
	<connection from="14134177_134858046_134845511_252326337" to="14134177_134845511_134858046_134845511" />
	<connection from="14134177_134858046_134845511_252326337" to="52092910_134845511_134850325_134845511" />
	<connection from="73017975_866613635_866614154_866613635" to="73017975_866613635_866614154_866614310" />
	<connection from="73017975_866613635_866614154_866614310" to="73017975_866613635_866614154_866614136" />
	<connection from="73017975_866613635_866614154_866614136" to="73017975_866613635_866614154_866614383" />
	<connection from="73017975_866613635_866614154_866614383" to="73017975_866613635_866614154_866614387" />
	<connection from="73017975_866613635_866614154_866614387" to="73017975_866613635_866614154_866614771" />
	<connection from="73017975_866613635_866614154_866614771" to="73017975_866613635_866614154_866613771" />
	<connection from="73017975_866613635_866614154_866613771" to="73017975_866613635_866614154_866613792" />
	<connection from="73017975_866613635_866614154_866613792" to="73017975_866613635_866614154_2026362896" />
	<connection from="73017975_866613635_866614154_2026362896" to="73017975_866613635_866614154_866614266" />
	<connection from="73017975_866613635_866614154_866614266" to="73017975_866613635_866614154_866614429" />
	<connection from="73017975_866613635_866614154_866614429" to="73017975_866613635_866614154_866614541" />
	<connection from="73017975_866613635_866614154_866614541" to="518427647_866614154_866613693_866614154" />
	<connection from="25118655_273486661_273486662_273486661" to="24966427_273486662_273486660_273486662" />
	<connection from="25118655_273486661_273486662_273486661" to="25118655_273486662_273486661_273486662" />
	<connection from="25118655_273486661_273486662_273486661" to="24966427_273486662_266006234_273486662" />
	<connection from="50833761_41240286_260162515_41240286" to="50833761_260162515_260162533_260162515" />
	<connection from="50833761_41240286_260162515_41240286" to="50833761_260162515_41240286_260162515" />
	<connection from="50833761_41240286_260162515_41240286" to="23995137_260162515_260162510_260162515" />
	<connection from="10416386_88954059_88954062_88954059" to="10416386_88954059_88954062_88954061" />
	<connection from="10416386_88954059_88954062_88954061" to="24476284_88954062_88954063_88954062" />
	<connection from="10416386_88954059_88954062_88954061" to="24476284_88954062_266006214_88954062" />
	<connection from="10416386_88954059_88954062_88954061" to="10416386_88954062_88954059_88954062" />
	<connection from="241092241_2492014459_33965032_2492014459" to="241092241_2492014459_33965032_33965024" />
	<connection from="241092241_2492014459_33965032_33965024" to="241092241_2492014459_33965032_2492014460" />
	<connection from="241092241_2492014459_33965032_2492014460" to="241092241_2492014459_33965032_33965020" />
	<connection from="241092241_2492014459_33965032_33965020" to="241092241_2492014459_33965032_362755578" />
	<connection from="241092241_2492014459_33965032_362755578" to="241092241_2492014459_33965032_33965026" />
	<connection from="241092241_2492014459_33965032_33965026" to="241092241_2492014459_33965032_33965030" />
	<connection from="241092241_2492014459_33965032_33965030" to="45124038_33965032_33965042_33965032" />
	<connection from="241092241_2492014459_33965032_33965030" to="241092241_33965032_2492014459_33965032" />
	<connection from="365829349_160740043_289031316_160740043" to="365829349_160740043_289031316_1137649800" />
	<connection from="365829349_160740043_289031316_1137649800" to="365829349_160740043_289031316_4519610880" />
	<connection from="365829349_160740043_289031316_4519610880" to="365829349_160740043_289031316_4519610883" />
	<connection from="365829349_160740043_289031316_4519610883" to="365829349_160740043_289031316_470346957" />
	<connection from="365829349_160740043_289031316_470346957" to="365829349_160740043_289031316_687443947" />
	<connection from="365829349_160740043_289031316_687443947" to="365829349_160740043_289031316_4668269994" />
	<connection from="365829349_160740043_289031316_4668269994" to="365829349_160740043_289031316_3997258783" />
	<connection from="365829349_160740043_289031316_3997258783" to="111283476_289031316_289031315_289031316" />
	<connection from="365829349_160740043_289031316_3997258783" to="365829349_289031316_160740043_289031316" />
	<connection from="297553853_134859921_3014398531_134859921" to="15743288_3014398531_134859917_3014398531" />
	<connection from="297553853_134859921_3014398531_134859921" to="297553853_3014398531_134859921_3014398531" />
	<connection from="301757377_98106229_29768673_98106229" to="301757377_98106229_29768673_3242196814" />
	<connection from="301757377_98106229_29768673_3242196814" to="301757377_98106229_29768673_3332835381" />