<?xml version="1.0" encoding="UTF-8"?>

<!-- generated on Tue May  7 01:27:47 2019 by Eclipse SUMO netgenerate Version d1422e4780
<configuration xmlns:xsi="http://www.w3.org/2001/XMLSchema-instance" xsi:noNamespaceSchemaLocation="http://sumo.dlr.de/xsd/netgenerateConfiguration.xsd">

    <grid_network>
        <grid value="true"/>
        <grid.number value="4"/>
        <grid.length value="100"/>
    </grid_network>

    <output>
        <output-file value="grid.net.xml"/>
    </output>

    <building_defaults>
        <default.lanenumber value="2"/>
    </building_defaults>

</configuration>
-->

<net version="0.27" xmlns:xsi="http://www.w3.org/2001/XMLSchema-instance" xsi:noNamespaceSchemaLocation="http://sumo.dlr.de/xsd/net_file.xsd">

    <location netOffset="0.00,0.00" convBoundary="0.00,0.00,300.00,300.00" origBoundary="0.00,0.00,300.00,300.00" projParameter="!"/>

    <edge id=":A0_0" function="internal">
        <lane id=":A0_0_0" index="0" speed="13.89" length="18.06" shape="-4.80,6.40 -4.10,1.50 -2.00,-2.00 1.50,-4.10 6.40,-4.80"/>
    </edge>
    <edge id=":A0_1" function="internal">
        <lane id=":A0_1_0" index="0" speed="13.89" length="12.90" shape="-1.60,6.40 -1.10,2.90 0.40,0.40 2.90,-1.10 6.40,-1.60"/>
    </edge>
    <edge id=":A0_2" function="internal">
        <lane id=":A0_2_0" index="0" speed="13.89" length="2.56" shape="-1.60,6.40 -0.80,5.20 0.00,4.80 0.20,4.90"/>
    </edge>
    <edge id=":A0_6" function="internal">
        <lane id=":A0_6_0" index="0" speed="13.89" length="2.12" shape="0.20,4.90 0.80,5.20 1.60,6.40"/>
    </edge>
    <edge id=":A0_3" function="internal">
        <lane id=":A0_3_0" index="0" speed="13.89" length="2.58" shape="6.40,4.80 5.70,4.90 5.20,5.20 4.90,5.70 4.80,6.40"/>
    </edge>
    <edge id=":A0_4" function="internal">
        <lane id=":A0_4_0" index="0" speed="13.89" length="7.74" shape="6.40,1.60 4.30,1.90 2.80,2.80 1.90,4.30 1.60,6.40"/>
    </edge>
    <edge id=":A0_5" function="internal">
        <lane id=":A0_5_0" index="0" speed="13.89" length="2.08" shape="6.40,1.60 5.20,0.80 4.91,0.23"/>
    </edge>
    <edge id=":A0_7" function="internal">
        <lane id=":A0_7_0" index="0" speed="13.89" length="2.59" shape="4.91,0.23 4.80,0.00 5.20,-0.80 6.40,-1.60"/>
    </edge>
    <edge id=":A1_0" function="internal">
        <lane id=":A1_0_0" index="0" speed="13.89" length="15.80" shape="-4.80,107.90 -4.80,92.10"/>
        <lane id=":A1_0_1" index="1" speed="13.89" length="15.80" shape="-1.60,107.90 -1.60,92.10"/>
    </edge>
    <edge id=":A1_2" function="internal">
        <lane id=":A1_2_0" index="0" speed="13.89" length="6.15" shape="-1.60,107.90 -1.01,103.74 0.00,102.07"/>
    </edge>
    <edge id=":A1_3" function="internal">
        <lane id=":A1_3_0" index="0" speed="13.89" length="2.34" shape="-1.60,107.90 -0.80,106.70 0.00,106.30"/>
    </edge>
    <edge id=":A1_11" function="internal">
        <lane id=":A1_11_0" index="0" speed="13.89" length="9.17" shape="0.00,102.07 0.77,100.78 3.74,98.99 7.90,98.40"/>
    </edge>
    <edge id=":A1_12" function="internal">
        <lane id=":A1_12_0" index="0" speed="13.89" length="2.34" shape="0.00,106.30 0.80,106.70 1.60,107.90"/>
    </edge>
    <edge id=":A1_4" function="internal">
        <lane id=":A1_4_0" index="0" speed="13.89" length="5.00" shape="7.90,104.80 6.54,104.99 5.57,105.57 4.99,106.54 4.80,107.90"/>
    </edge>
    <edge id=":A1_5" function="internal">
        <lane id=":A1_5_0" index="0" speed="13.89" length="15.32" shape="7.90,101.60 3.74,101.01 0.78,99.22 -1.01,96.26 -1.60,92.10"/>
    </edge>
    <edge id=":A1_6" function="internal">
        <lane id=":A1_6_0" index="0" speed="13.89" length="4.67" shape="7.90,101.60 6.70,100.80 6.30,100.00 6.70,99.20 7.90,98.40"/>
    </edge>
    <edge id=":A1_7" function="internal">
        <lane id=":A1_7_0" index="0" speed="13.89" length="5.00" shape="4.80,92.10 4.99,93.46 5.57,94.42 6.54,95.01 7.90,95.20"/>
    </edge>
    <edge id=":A1_8" function="internal">
        <lane id=":A1_8_0" index="0" speed="13.89" length="15.80" shape="4.80,92.10 4.80,107.90"/>
        <lane id=":A1_8_1" index="1" speed="13.89" length="15.80" shape="1.60,92.10 1.60,107.90"/>
    </edge>
    <edge id=":A1_10" function="internal">
        <lane id=":A1_10_0" index="0" speed="13.89" length="2.34" shape="1.60,92.10 0.80,93.30 0.00,93.70"/>
    </edge>
    <edge id=":A1_13" function="internal">
        <lane id=":A1_13_0" index="0" speed="13.89" length="2.34" shape="0.00,93.70 -0.80,93.30 -1.60,92.10"/>
    </edge>
    <edge id=":A2_0" function="internal">
        <lane id=":A2_0_0" index="0" speed="13.89" length="15.80" shape="-4.80,207.90 -4.80,192.10"/>
        <lane id=":A2_0_1" index="1" speed="13.89" length="15.80" shape="-1.60,207.90 -1.60,192.10"/>
    </edge>
    <edge id=":A2_2" function="internal">
        <lane id=":A2_2_0" index="0" speed="13.89" length="6.15" shape="-1.60,207.90 -1.01,203.74 0.00,202.07"/>
    </edge>
    <edge id=":A2_3" function="internal">
        <lane id=":A2_3_0" index="0" speed="13.89" length="2.34" shape="-1.60,207.90 -0.80,206.70 0.00,206.30"/>
    </edge>
    <edge id=":A2_11" function="internal">
        <lane id=":A2_11_0" index="0" speed="13.89" length="9.17" shape="0.00,202.07 0.77,200.78 3.74,198.99 7.90,198.40"/>
    </edge>
    <edge id=":A2_12" function="internal">
        <lane id=":A2_12_0" index="0" speed="13.89" length="2.34" shape="0.00,206.30 0.80,206.70 1.60,207.90"/>
    </edge>
    <edge id=":A2_4" function="internal">
        <lane id=":A2_4_0" index="0" speed="13.89" length="5.00" shape="7.90,204.80 6.54,204.99 5.57,205.58 4.99,206.54 4.80,207.90"/>
    </edge>
    <edge id=":A2_5" function="internal">
        <lane id=":A2_5_0" index="0" speed="13.89" length="15.32" shape="7.90,201.60 3.74,201.01 0.78,199.22 -1.01,196.26 -1.60,192.10"/>
    </edge>
    <edge id=":A2_6" function="internal">
        <lane id=":A2_6_0" index="0" speed="13.89" length="4.67" shape="7.90,201.60 6.70,200.80 6.30,200.00 6.70,199.20 7.90,198.40"/>
    </edge>
    <edge id=":A2_7" function="internal">
        <lane id=":A2_7_0" index="0" speed="13.89" length="5.00" shape="4.80,192.10 4.99,193.46 5.57,194.43 6.54,195.01 7.90,195.20"/>
    </edge>
    <edge id=":A2_8" function="internal">
        <lane id=":A2_8_0" index="0" speed="13.89" length="15.80" shape="4.80,192.10 4.80,207.90"/>
        <lane id=":A2_8_1" index="1" speed="13.89" length="15.80" shape="1.60,192.10 1.60,207.90"/>
    </edge>
    <edge id=":A2_10" function="internal">
        <lane id=":A2_10_0" index="0" speed="13.89" length="2.34" shape="1.60,192.10 0.80,193.30 0.00,193.70"/>
    </edge>
    <edge id=":A2_13" function="internal">
        <lane id=":A2_13_0" index="0" speed="13.89" length="2.34" shape="0.00,193.70 -0.80,193.30 -1.60,192.10"/>
    </edge>
    <edge id=":A3_0" function="internal">
        <lane id=":A3_0_0" index="0" speed="13.89" length="18.06" shape="6.40,304.80 1.50,304.10 -2.00,302.00 -4.10,298.50 -4.80,293.60"/>
    </edge>
    <edge id=":A3_1" function="internal">
        <lane id=":A3_1_0" index="0" speed="13.89" length="12.90" shape="6.40,301.60 2.90,301.10 0.40,299.60 -1.10,297.10 -1.60,293.60"/>
    </edge>
    <edge id=":A3_2" function="internal">
        <lane id=":A3_2_0" index="0" speed="13.89" length="2.56" shape="6.40,301.60 5.20,300.80 4.80,300.00 4.90,299.80"/>
    </edge>
    <edge id=":A3_6" function="internal">
        <lane id=":A3_6_0" index="0" speed="13.89" length="2.12" shape="4.90,299.80 5.20,299.20 6.40,298.40"/>
    </edge>
    <edge id=":A3_3" function="internal">
        <lane id=":A3_3_0" index="0" speed="13.89" length="2.58" shape="4.80,293.60 4.90,294.30 5.20,294.80 5.70,295.10 6.40,295.20"/>
    </edge>
    <edge id=":A3_4" function="internal">
        <lane id=":A3_4_0" index="0" speed="13.89" length="7.74" shape="1.60,293.60 1.90,295.70 2.80,297.20 4.30,298.10 6.40,298.40"/>
    </edge>
    <edge id=":A3_5" function="internal">
        <lane id=":A3_5_0" index="0" speed="13.89" length="2.08" shape="1.60,293.60 0.80,294.80 0.23,295.09"/>
    </edge>
    <edge id=":A3_7" function="internal">
        <lane id=":A3_7_0" index="0" speed="13.89" length="2.59" shape="0.23,295.09 0.00,295.20 -0.80,294.80 -1.60,293.60"/>
    </edge>
    <edge id=":B0_0" function="internal">
        <lane id=":B0_0_0" index="0" speed="13.89" length="5.00" shape="95.20,7.90 95.01,6.54 94.43,5.57 93.46,4.99 92.10,4.80"/>
    </edge>
    <edge id=":B0_1" function="internal">
        <lane id=":B0_1_0" index="0" speed="13.89" length="15.32" shape="98.40,7.90 98.99,3.74 100.78,0.78 103.74,-1.01 107.90,-1.60"/>
    </edge>
    <edge id=":B0_2" function="internal">
        <lane id=":B0_2_0" index="0" speed="13.89" length="4.67" shape="98.40,7.90 99.20,6.70 100.00,6.30 100.80,6.70 101.60,7.90"/>
    </edge>
    <edge id=":B0_3" function="internal">
        <lane id=":B0_3_0" index="0" speed="13.89" length="5.00" shape="107.90,4.80 106.54,4.99 105.58,5.57 104.99,6.54 104.80,7.90"/>
    </edge>
    <edge id=":B0_4" function="internal">
        <lane id=":B0_4_0" index="0" speed="13.89" length="15.80" shape="107.90,4.80 92.10,4.80"/>
        <lane id=":B0_4_1" index="1" speed="13.89" length="15.80" shape="107.90,1.60 92.10,1.60"/>
    </edge>
    <edge id=":B0_6" function="internal">
        <lane id=":B0_6_0" index="0" speed="13.89" length="2.34" shape="107.90,1.60 106.70,0.80 106.30,0.00"/>
    </edge>
    <edge id=":B0_11" function="internal">
        <lane id=":B0_11_0" index="0" speed="13.89" length="2.34" shape="106.30,0.00 106.70,-0.80 107.90,-1.60"/>
    </edge>
    <edge id=":B0_7" function="internal">
        <lane id=":B0_7_0" index="0" speed="13.89" length="15.80" shape="92.10,-4.80 107.90,-4.80"/>
        <lane id=":B0_7_1" index="1" speed="13.89" length="15.80" shape="92.10,-1.60 107.90,-1.60"/>
    </edge>
    <edge id=":B0_9" function="internal">
        <lane id=":B0_9_0" index="0" speed="13.89" length="6.15" shape="92.10,-1.60 96.26,-1.01 97.93,0.00"/>
    </edge>
    <edge id=":B0_10" function="internal">
        <lane id=":B0_10_0" index="0" speed="13.89" length="2.34" shape="92.10,-1.60 93.30,-0.80 93.70,0.00"/>
    </edge>
    <edge id=":B0_12" function="internal">
        <lane id=":B0_12_0" index="0" speed="13.89" length="9.17" shape="97.93,0.00 99.22,0.77 101.01,3.74 101.60,7.90"/>
    </edge>
    <edge id=":B0_13" function="internal">
        <lane id=":B0_13_0" index="0" speed="13.89" length="2.34" shape="93.70,0.00 93.30,0.80 92.10,1.60"/>
    </edge>
    <edge id=":B1_0" function="internal">
        <lane id=":B1_0_0" index="0" speed="13.89" length="5.00" shape="95.20,107.90 95.01,106.54 94.43,105.58 93.46,104.99 92.10,104.80"/>
    </edge>
    <edge id=":B1_1" function="internal">
        <lane id=":B1_1_0" index="0" speed="13.89" length="15.80" shape="95.20,107.90 95.20,92.10"/>
        <lane id=":B1_1_1" index="1" speed="13.89" length="15.80" shape="98.40,107.90 98.40,92.10"/>
    </edge>
    <edge id=":B1_3" function="internal">
        <lane id=":B1_3_0" index="0" speed="13.89" length="6.15" shape="98.40,107.90 98.99,103.74 100.00,102.07"/>
    </edge>
    <edge id=":B1_4" function="internal">
        <lane id=":B1_4_0" index="0" speed="13.89" length="2.34" shape="98.40,107.90 99.20,106.70 100.00,106.30"/>
    </edge>
    <edge id=":B1_20" function="internal">
        <lane id=":B1_20_0" index="0" speed="13.89" length="9.17" shape="100.00,102.07 100.78,100.78 103.74,98.99 107.90,98.40"/>
    </edge>
    <edge id=":B1_21" function="internal">
        <lane id=":B1_21_0" index="0" speed="13.89" length="2.34" shape="100.00,106.30 100.80,106.70 101.60,107.90"/>
    </edge>
    <edge id=":B1_5" function="internal">
        <lane id=":B1_5_0" index="0" speed="13.89" length="5.00" shape="107.90,104.80 106.54,104.99 105.58,105.57 104.99,106.54 104.80,107.90"/>
    </edge>
    <edge id=":B1_6" function="internal">
        <lane id=":B1_6_0" index="0" speed="13.89" length="15.80" shape="107.90,104.80 92.10,104.80"/>
        <lane id=":B1_6_1" index="1" speed="13.89" length="15.80" shape="107.90,101.60 92.10,101.60"/>
    </edge>
    <edge id=":B1_8" function="internal">
        <lane id=":B1_8_0" index="0" speed="13.89" length="15.32" shape="107.90,101.60 103.74,101.01 100.78,99.22 98.99,96.26 98.40,92.10"/>
    </edge>
    <edge id=":B1_9" function="internal">
        <lane id=":B1_9_0" index="0" speed="13.89" length="4.67" shape="107.90,101.60 106.70,100.80 106.30,100.00 106.70,99.20 107.90,98.40"/>
    </edge>
    <edge id=":B1_10" function="internal">
        <lane id=":B1_10_0" index="0" speed="13.89" length="5.00" shape="104.80,92.10 104.99,93.46 105.57,94.42 106.54,95.01 107.90,95.20"/>
    </edge>
    <edge id=":B1_11" function="internal">
        <lane id=":B1_11_0" index="0" speed="13.89" length="15.80" shape="104.80,92.10 104.80,107.90"/>
        <lane id=":B1_11_1" index="1" speed="13.89" length="15.80" shape="101.60,92.10 101.60,107.90"/>
    </edge>
    <edge id=":B1_13" function="internal">
        <lane id=":B1_13_0" index="0" speed="13.89" length="6.15" shape="101.60,92.10 101.01,96.26 100.00,97.93"/>
    </edge>
    <edge id=":B1_14" function="internal">
        <lane id=":B1_14_0" index="0" speed="13.89" length="2.34" shape="101.60,92.10 100.80,93.30 100.00,93.70"/>
    </edge>
    <edge id=":B1_22" function="internal">
        <lane id=":B1_22_0" index="0" speed="13.89" length="9.17" shape="100.00,97.93 99.22,99.22 96.26,101.01 92.10,101.60"/>
    </edge>
    <edge id=":B1_23" function="internal">
        <lane id=":B1_23_0" index="0" speed="13.89" length="2.34" shape="100.00,93.70 99.20,93.30 98.40,92.10"/>
    </edge>
    <edge id=":B1_15" function="internal">
        <lane id=":B1_15_0" index="0" speed="13.89" length="5.00" shape="92.10,95.20 93.46,95.01 94.42,94.43 95.01,93.46 95.20,92.10"/>
    </edge>
    <edge id=":B1_16" function="internal">
        <lane id=":B1_16_0" index="0" speed="13.89" length="15.80" shape="92.10,95.20 107.90,95.20"/>
        <lane id=":B1_16_1" index="1" speed="13.89" length="15.80" shape="92.10,98.40 107.90,98.40"/>
    </edge>
    <edge id=":B1_18" function="internal">
        <lane id=":B1_18_0" index="0" speed="13.89" length="15.32" shape="92.10,98.40 96.26,98.99 99.22,100.78 101.01,103.74 101.60,107.90"/>
    </edge>
    <edge id=":B1_19" function="internal">
        <lane id=":B1_19_0" index="0" speed="13.89" length="4.67" shape="92.10,98.40 93.30,99.20 93.70,100.00 93.30,100.80 92.10,101.60"/>
    </edge>
    <edge id=":B2_0" function="internal">
        <lane id=":B2_0_0" index="0" speed="13.89" length="5.00" shape="95.20,207.90 95.01,206.54 94.43,205.57 93.46,204.99 92.10,204.80"/>
    </edge>
    <edge id=":B2_1" function="internal">
        <lane id=":B2_1_0" index="0" speed="13.89" length="15.80" shape="95.20,207.90 95.20,192.10"/>
        <lane id=":B2_1_1" index="1" speed="13.89" length="15.80" shape="98.40,207.90 98.40,192.10"/>
    </edge>
    <edge id=":B2_3" function="internal">
        <lane id=":B2_3_0" index="0" speed="13.89" length="6.15" shape="98.40,207.90 98.99,203.74 100.00,202.07"/>
    </edge>
    <edge id=":B2_4" function="internal">
        <lane id=":B2_4_0" index="0" speed="13.89" length="2.34" shape="98.40,207.90 99.20,206.70 100.00,206.30"/>
    </edge>
    <edge id=":B2_20" function="internal">
        <lane id=":B2_20_0" index="0" speed="13.89" length="9.17" shape="100.00,202.07 100.78,200.78 103.74,198.99 107.90,198.40"/>
    </edge>
    <edge id=":B2_21" function="internal">
        <lane id=":B2_21_0" index="0" speed="13.89" length="2.34" shape="100.00,206.30 100.80,206.70 101.60,207.90"/>
    </edge>
    <edge id=":B2_5" function="internal">
        <lane id=":B2_5_0" index="0" speed="13.89" length="5.00" shape="107.90,204.80 106.54,204.99 105.58,205.58 104.99,206.54 104.80,207.90"/>
    </edge>
    <edge id=":B2_6" function="internal">
        <lane id=":B2_6_0" index="0" speed="13.89" length="15.80" shape="107.90,204.80 92.10,204.80"/>
        <lane id=":B2_6_1" index="1" speed="13.89" length="15.80" shape="107.90,201.60 92.10,201.60"/>
    </edge>
    <edge id=":B2_8" function="internal">
        <lane id=":B2_8_0" index="0" speed="13.89" length="15.32" shape="107.90,201.60 103.74,201.01 100.78,199.22 98.99,196.26 98.40,192.10"/>
    </edge>
    <edge id=":B2_9" function="internal">
        <lane id=":B2_9_0" index="0" speed="13.89" length="4.67" shape="107.90,201.60 106.70,200.80 106.30,200.00 106.70,199.20 107.90,198.40"/>
    </edge>
    <edge id=":B2_10" function="internal">
        <lane id=":B2_10_0" index="0" speed="13.89" length="5.00" shape="104.80,192.10 104.99,193.46 105.57,194.43 106.54,195.01 107.90,195.20"/>
    </edge>
    <edge id=":B2_11" function="internal">
        <lane id=":B2_11_0" index="0" speed="13.89" length="15.80" shape="104.80,192.10 104.80,207.90"/>
        <lane id=":B2_11_1" index="1" speed="13.89" length="15.80" shape="101.60,192.10 101.60,207.90"/>
    </edge>
    <edge id=":B2_13" function="internal">
        <lane id=":B2_13_0" index="0" speed="13.89" length="6.15" shape="101.60,192.10 101.01,196.26 100.00,197.93"/>
    </edge>
    <edge id=":B2_14" function="internal">
        <lane id=":B2_14_0" index="0" speed="13.89" length="2.34" shape="101.60,192.10 100.80,193.30 100.00,193.70"/>
    </edge>
    <edge id=":B2_22" function="internal">
        <lane id=":B2_22_0" index="0" speed="13.89" length="9.17" shape="100.00,197.93 99.22,199.22 96.26,201.01 92.10,201.60"/>
    </edge>
    <edge id=":B2_23" function="internal">
        <lane id=":B2_23_0" index="0" speed="13.89" length="2.34" shape="100.00,193.70 99.20,193.30 98.40,192.10"/>
    </edge>
    <edge id=":B2_15" function="internal">
        <lane id=":B2_15_0" index="0" speed="13.89" length="5.00" shape="92.10,195.20 93.46,195.01 94.42,194.42 95.01,193.46 95.20,192.10"/>
    </edge>
    <edge id=":B2_16" function="internal">
        <lane id=":B2_16_0" index="0" speed="13.89" length="15.80" shape="92.10,195.20 107.90,195.20"/>
        <lane id=":B2_16_1" index="1" speed="13.89" length="15.80" shape="92.10,198.40 107.90,198.40"/>
    </edge>
    <edge id=":B2_18" function="internal">
        <lane id=":B2_18_0" index="0" speed="13.89" length="15.32" shape="92.10,198.40 96.26,198.99 99.22,200.78 101.01,203.74 101.60,207.90"/>
    </edge>
    <edge id=":B2_19" function="internal">
        <lane id=":B2_19_0" index="0" speed="13.89" length="4.67" shape="92.10,198.40 93.30,199.20 93.70,200.00 93.30,200.80 92.10,201.60"/>
    </edge>
    <edge id=":B3_0" function="internal">
        <lane id=":B3_0_0" index="0" speed="13.89" length="15.80" shape="107.90,304.80 92.10,304.80"/>
        <lane id=":B3_0_1" index="1" speed="13.89" length="15.80" shape="107.90,301.60 92.10,301.60"/>
    </edge>
    <edge id=":B3_2" function="internal">
        <lane id=":B3_2_0" index="0" speed="13.89" length="6.15" shape="107.90,301.60 103.74,301.01 102.07,300.00"/>
    </edge>
    <edge id=":B3_3" function="internal">
        <lane id=":B3_3_0" index="0" speed="13.89" length="2.34" shape="107.90,301.60 106.70,300.80 106.30,300.00"/>
    </edge>
    <edge id=":B3_11" function="internal">
        <lane id=":B3_11_0" index="0" speed="13.89" length="9.17" shape="102.07,300.00 100.78,299.23 98.99,296.26 98.40,292.10"/>
    </edge>
    <edge id=":B3_12" function="internal">
        <lane id=":B3_12_0" index="0" speed="13.89" length="2.34" shape="106.30,300.00 106.70,299.20 107.90,298.40"/>
    </edge>
    <edge id=":B3_4" function="internal">
        <lane id=":B3_4_0" index="0" speed="13.89" length="5.00" shape="104.80,292.10 104.99,293.46 105.57,294.43 106.54,295.01 107.90,295.20"/>
    </edge>
    <edge id=":B3_5" function="internal">
        <lane id=":B3_5_0" index="0" speed="13.89" length="15.32" shape="101.60,292.10 101.01,296.26 99.22,299.23 96.26,301.01 92.10,301.60"/>
    </edge>
    <edge id=":B3_6" function="internal">
        <lane id=":B3_6_0" index="0" speed="13.89" length="4.67" shape="101.60,292.10 100.80,293.30 100.00,293.70 99.20,293.30 98.40,292.10"/>
    </edge>
    <edge id=":B3_7" function="internal">
        <lane id=":B3_7_0" index="0" speed="13.89" length="5.00" shape="92.10,295.20 93.46,295.01 94.42,294.42 95.01,293.46 95.20,292.10"/>
    </edge>
    <edge id=":B3_8" function="internal">
        <lane id=":B3_8_0" index="0" speed="13.89" length="15.80" shape="92.10,295.20 107.90,295.20"/>
        <lane id=":B3_8_1" index="1" speed="13.89" length="15.80" shape="92.10,298.40 107.90,298.40"/>
    </edge>
    <edge id=":B3_10" function="internal">
        <lane id=":B3_10_0" index="0" speed="13.89" length="2.34" shape="92.10,298.40 93.30,299.20 93.70,300.00"/>
    </edge>
    <edge id=":B3_13" function="internal">
        <lane id=":B3_13_0" index="0" speed="13.89" length="2.34" shape="93.70,300.00 93.30,300.80 92.10,301.60"/>
    </edge>
    <edge id=":C0_0" function="internal">
        <lane id=":C0_0_0" index="0" speed="13.89" length="5.00" shape="195.20,7.90 195.01,6.54 194.42,5.57 193.46,4.99 192.10,4.80"/>
    </edge>
    <edge id=":C0_1" function="internal">
        <lane id=":C0_1_0" index="0" speed="13.89" length="15.32" shape="198.40,7.90 198.99,3.74 200.78,0.78 203.74,-1.01 207.90,-1.60"/>
    </edge>
    <edge id=":C0_2" function="internal">
        <lane id=":C0_2_0" index="0" speed="13.89" length="4.67" shape="198.40,7.90 199.20,6.70 200.00,6.30 200.80,6.70 201.60,7.90"/>
    </edge>
    <edge id=":C0_3" function="internal">
        <lane id=":C0_3_0" index="0" speed="13.89" length="5.00" shape="207.90,4.80 206.54,4.99 205.57,5.57 204.99,6.54 204.80,7.90"/>
    </edge>
    <edge id=":C0_4" function="internal">
        <lane id=":C0_4_0" index="0" speed="13.89" length="15.80" shape="207.90,4.80 192.10,4.80"/>
        <lane id=":C0_4_1" index="1" speed="13.89" length="15.80" shape="207.90,1.60 192.10,1.60"/>
    </edge>
    <edge id=":C0_6" function="internal">
        <lane id=":C0_6_0" index="0" speed="13.89" length="2.34" shape="207.90,1.60 206.70,0.80 206.30,0.00"/>
    </edge>
    <edge id=":C0_11" function="internal">
        <lane id=":C0_11_0" index="0" speed="13.89" length="2.34" shape="206.30,0.00 206.70,-0.80 207.90,-1.60"/>
    </edge>
    <edge id=":C0_7" function="internal">
        <lane id=":C0_7_0" index="0" speed="13.89" length="15.80" shape="192.10,-4.80 207.90,-4.80"/>
        <lane id=":C0_7_1" index="1" speed="13.89" length="15.80" shape="192.10,-1.60 207.90,-1.60"/>
    </edge>
    <edge id=":C0_9" function="internal">
        <lane id=":C0_9_0" index="0" speed="13.89" length="6.15" shape="192.10,-1.60 196.26,-1.01 197.93,0.00"/>
    </edge>
    <edge id=":C0_10" function="internal">
        <lane id=":C0_10_0" index="0" speed="13.89" length="2.34" shape="192.10,-1.60 193.30,-0.80 193.70,0.00"/>
    </edge>
    <edge id=":C0_12" function="internal">
        <lane id=":C0_12_0" index="0" speed="13.89" length="9.17" shape="197.93,0.00 199.22,0.77 201.01,3.74 201.60,7.90"/>
    </edge>
    <edge id=":C0_13" function="internal">
        <lane id=":C0_13_0" index="0" speed="13.89" length="2.34" shape="193.70,0.00 193.30,0.80 192.10,1.60"/>
    </edge>
    <edge id=":C1_0" function="internal">
        <lane id=":C1_0_0" index="0" speed="13.89" length="5.00" shape="195.20,107.90 195.01,106.54 194.42,105.58 193.46,104.99 192.10,104.80"/>
    </edge>
    <edge id=":C1_1" function="internal">
        <lane id=":C1_1_0" index="0" speed="13.89" length="15.80" shape="195.20,107.90 195.20,92.10"/>
        <lane id=":C1_1_1" index="1" speed="13.89" length="15.80" shape="198.40,107.90 198.40,92.10"/>
    </edge>
    <edge id=":C1_3" function="internal">
        <lane id=":C1_3_0" index="0" speed="13.89" length="6.15" shape="198.40,107.90 198.99,103.74 200.00,102.07"/>
    </edge>
    <edge id=":C1_4" function="internal">
        <lane id=":C1_4_0" index="0" speed="13.89" length="2.34" shape="198.40,107.90 199.20,106.70 200.00,106.30"/>
    </edge>
    <edge id=":C1_20" function="internal">
        <lane id=":C1_20_0" index="0" speed="13.89" length="9.17" shape="200.00,102.07 200.78,100.78 203.74,98.99 207.90,98.40"/>
    </edge>
    <edge id=":C1_21" function="internal">
        <lane id=":C1_21_0" index="0" speed="13.89" length="2.34" shape="200.00,106.30 200.80,106.70 201.60,107.90"/>
    </edge>
    <edge id=":C1_5" function="internal">
        <lane id=":C1_5_0" index="0" speed="13.89" length="5.00" shape="207.90,104.80 206.54,104.99 205.57,105.57 204.99,106.54 204.80,107.90"/>
    </edge>
    <edge id=":C1_6" function="internal">
        <lane id=":C1_6_0" index="0" speed="13.89" length="15.80" shape="207.90,104.80 192.10,104.80"/>
        <lane id=":C1_6_1" index="1" speed="13.89" length="15.80" shape="207.90,101.60 192.10,101.60"/>
    </edge>
    <edge id=":C1_8" function="internal">
        <lane id=":C1_8_0" index="0" speed="13.89" length="15.32" shape="207.90,101.60 203.74,101.01 200.78,99.22 198.99,96.26 198.40,92.10"/>
    </edge>
    <edge id=":C1_9" function="internal">
        <lane id=":C1_9_0" index="0" speed="13.89" length="4.67" shape="207.90,101.60 206.70,100.80 206.30,100.00 206.70,99.20 207.90,98.40"/>
    </edge>
    <edge id=":C1_10" function="internal">
        <lane id=":C1_10_0" index="0" speed="13.89" length="5.00" shape="204.80,92.10 204.99,93.46 205.58,94.42 206.54,95.01 207.90,95.20"/>
    </edge>
    <edge id=":C1_11" function="internal">
        <lane id=":C1_11_0" index="0" speed="13.89" length="15.80" shape="204.80,92.10 204.80,107.90"/>
        <lane id=":C1_11_1" index="1" speed="13.89" length="15.80" shape="201.60,92.10 201.60,107.90"/>
    </edge>
    <edge id=":C1_13" function="internal">
        <lane id=":C1_13_0" index="0" speed="13.89" length="6.15" shape="201.60,92.10 201.01,96.26 200.00,97.93"/>
    </edge>
    <edge id=":C1_14" function="internal">
        <lane id=":C1_14_0" index="0" speed="13.89" length="2.34" shape="201.60,92.10 200.80,93.30 200.00,93.70"/>
    </edge>
    <edge id=":C1_22" function="internal">
        <lane id=":C1_22_0" index="0" speed="13.89" length="9.17" shape="200.00,97.93 199.22,99.22 196.26,101.01 192.10,101.60"/>
    </edge>
    <edge id=":C1_23" function="internal">
        <lane id=":C1_23_0" index="0" speed="13.89" length="2.34" shape="200.00,93.70 199.20,93.30 198.40,92.10"/>
    </edge>
    <edge id=":C1_15" function="internal">
        <lane id=":C1_15_0" index="0" speed="13.89" length="5.00" shape="192.10,95.20 193.46,95.01 194.43,94.43 195.01,93.46 195.20,92.10"/>
    </edge>
    <edge id=":C1_16" function="internal">
        <lane id=":C1_16_0" index="0" speed="13.89" length="15.80" shape="192.10,95.20 207.90,95.20"/>
        <lane id=":C1_16_1" index="1" speed="13.89" length="15.80" shape="192.10,98.40 207.90,98.40"/>
    </edge>
    <edge id=":C1_18" function="internal">
        <lane id=":C1_18_0" index="0" speed="13.89" length="15.32" shape="192.10,98.40 196.26,98.99 199.22,100.78 201.01,103.74 201.60,107.90"/>
    </edge>
    <edge id=":C1_19" function="internal">
        <lane id=":C1_19_0" index="0" speed="13.89" length="4.67" shape="192.10,98.40 193.30,99.20 193.70,100.00 193.30,100.80 192.10,101.60"/>
    </edge>
    <edge id=":C2_0" function="internal">
        <lane id=":C2_0_0" index="0" speed="13.89" length="5.00" shape="195.20,207.90 195.01,206.54 194.42,205.57 193.46,204.99 192.10,204.80"/>
    </edge>
    <edge id=":C2_1" function="internal">
        <lane id=":C2_1_0" index="0" speed="13.89" length="15.80" shape="195.20,207.90 195.20,192.10"/>
        <lane id=":C2_1_1" index="1" speed="13.89" length="15.80" shape="198.40,207.90 198.40,192.10"/>
    </edge>
    <edge id=":C2_3" function="internal">
        <lane id=":C2_3_0" index="0" speed="13.89" length="6.15" shape="198.40,207.90 198.99,203.74 200.00,202.07"/>
    </edge>
    <edge id=":C2_4" function="internal">
        <lane id=":C2_4_0" index="0" speed="13.89" length="2.34" shape="198.40,207.90 199.20,206.70 200.00,206.30"/>
    </edge>
    <edge id=":C2_20" function="internal">
        <lane id=":C2_20_0" index="0" speed="13.89" length="9.17" shape="200.00,202.07 200.78,200.78 203.74,198.99 207.90,198.40"/>
    </edge>
    <edge id=":C2_21" function="internal">
        <lane id=":C2_21_0" index="0" speed="13.89" length="2.34" shape="200.00,206.30 200.80,206.70 201.60,207.90"/>
    </edge>
    <edge id=":C2_5" function="internal">
        <lane id=":C2_5_0" index="0" speed="13.89" length="5.00" shape="207.90,204.80 206.54,204.99 205.57,205.58 204.99,206.54 204.80,207.90"/>
    </edge>
    <edge id=":C2_6" function="internal">
        <lane id=":C2_6_0" index="0" speed="13.89" length="15.80" shape="207.90,204.80 192.10,204.80"/>
        <lane id=":C2_6_1" index="1" speed="13.89" length="15.80" shape="207.90,201.60 192.10,201.60"/>
    </edge>
    <edge id=":C2_8" function="internal">
        <lane id=":C2_8_0" index="0" speed="13.89" length="15.32" shape="207.90,201.60 203.74,201.01 200.78,199.22 198.99,196.26 198.40,192.10"/>
    </edge>
    <edge id=":C2_9" function="internal">
        <lane id=":C2_9_0" index="0" speed="13.89" length="4.67" shape="207.90,201.60 206.70,200.80 206.30,200.00 206.70,199.20 207.90,198.40"/>
    </edge>
    <edge id=":C2_10" function="internal">
        <lane id=":C2_10_0" index="0" speed="13.89" length="5.00" shape="204.80,192.10 204.99,193.46 205.58,194.43 206.54,195.01 207.90,195.20"/>
    </edge>
    <edge id=":C2_11" function="internal">
        <lane id=":C2_11_0" index="0" speed="13.89" length="15.80" shape="204.80,192.10 204.80,207.90"/>
        <lane id=":C2_11_1" index="1" speed="13.89" length="15.80" shape="201.60,192.10 201.60,207.90"/>
    </edge>
    <edge id=":C2_13" function="internal">
        <lane id=":C2_13_0" index="0" speed="13.89" length="6.15" shape="201.60,192.10 201.01,196.26 200.00,197.93"/>
    </edge>
    <edge id=":C2_14" function="internal">