<edges>
	<edge id="310702247_857488024_2311924063_857488024" from="857488024" to="869609118" numLanes="1" speed="27.78" />
	<edge id="310702247_857488024_2311924063_869609118" from="869609118" to="281754185" numLanes="1" speed="27.78" />
	<edge id="310702247_857488024_2311924063_281754185" from="281754185" to="281754186" numLanes="1" speed="27.78" />
	<edge id="310702247_857488024_2311924063_281754186" from="281754186" to="2311924086" numLanes="1" speed="27.78" />
	<edge id="310702247_857488024_2311924063_2311924086" from="2311924086" to="29859970" numLanes="1" speed="27.78" />
	<edge id="310702247_857488024_2311924063_29859970" from="29859970" to="940271293" numLanes="1" speed="27.78" />
	<edge id="310702247_857488024_2311924063_940271293" from="940271293" to="2311924063" numLanes="1" speed="27.78" />
	<edge id="660541343_6184387509_5221899621_6184387509" from="6184387509" to="5221899621" numLanes="1" speed="8.33" />
	<edge id="116570245_1313885509_866614488_1313885509" from="1313885509" to="866613837" numLanes="2" speed="33.33" />
	<edge id="116570245_1313885509_866614488_866613837" from="866613837" to="2026362890" numLanes="2" speed="33.33" />
	<edge id="116570245_1313885509_866614488_2026362890" from="2026362890" to="866613502" numLanes="2" speed="33.33" />
	<edge id="116570245_1313885509_866614488_866613502" from="866613502" to="2026362862" numLanes="2" speed="33.33" />
	<edge id="116570245_1313885509_866614488_2026362862" from="2026362862" to="1313885462" numLanes="2" speed="33.33" />
	<edge id="116570245_1313885509_866614488_1313885462" from="1313885462" to="866614488" numLanes="2" speed="33.33" />
	<edge id="52092909_134845511_134859062_134845511" from="134845511" to="134859062" numLanes="1" speed="13.89" />
	<edge id="10995578_97949961_97949963_97949961" from="97949961" to="3150247112" numLanes="1" speed="8.33" />
	<edge id="10995578_97949961_97949963_3150247112" from="3150247112" to="97949963" numLanes="1" speed="8.33" />
	<edge id="28962161_279583894_29859974_279583894" from="279583894" to="279583726" numLanes="1" speed="8.33" />
	<edge id="28962161_279583894_29859974_279583726" from="279583726" to="29859974" numLanes="1" speed="8.33" />
	<edge id="9658128_73631554_73659752_73631554" from="73631554" to="73659752" numLanes="1" speed="8.33" />
	<edge id="5653438_41240746_41240737_41240746" from="41240746" to="41240737" numLanes="1" speed="8.33" />
	<edge id="27065894_98225851_98225849_98225851" from="98225851" to="98225849" numLanes="1" speed="8.33" />
	<edge id="10993994_97941041_98042653_97941041" from="97941041" to="98042653" numLanes="1" speed="13.89" />
	<edge id="15994271_160719469_160724195_160719469" from="160719469" to="160724195" numLanes="1" speed="8.33" />
	<edge id="50833760_41239986_41239973_41239986" from="41239986" to="3039095543" numLanes="1" speed="19.44" />
	<edge id="50833760_41239986_41239973_3039095543" from="3039095543" to="3039083650" numLanes="1" speed="19.44" />
	<edge id="50833760_41239986_41239973_3039083650" from="3039083650" to="3039083654" numLanes="1" speed="19.44" />
	<edge id="50833760_41239986_41239973_3039083654" from="3039083654" to="3039083657" numLanes="1" speed="19.44" />
	<edge id="50833760_41239986_41239973_3039083657" from="3039083657" to="41239982" numLanes="1" speed="19.44" />
	<edge id="50833760_41239986_41239973_41239982" from="41239982" to="3039083661" numLanes="1" speed="19.44" />
	<edge id="50833760_41239986_41239973_3039083661" from="3039083661" to="41239973" numLanes="1" speed="19.44" />
	<edge id="15743439_157535175_157535178_157535175" from="157535175" to="157535178" numLanes="1" speed="8.33" />
	<edge id="241594963_41240264_41240283_41240264" from="41240264" to="262166926" numLanes="1" speed="19.44" />
	<edge id="241594963_41240264_41240283_262166926" from="262166926" to="41240266" numLanes="1" speed="19.44" />
	<edge id="241594963_41240264_41240283_41240266" from="41240266" to="5840553297" numLanes="1" speed="19.44" />
	<edge id="241594963_41240264_41240283_5840553297" from="5840553297" to="41240269" numLanes="1" speed="19.44" />
	<edge id="241594963_41240264_41240283_41240269" from="41240269" to="41240272" numLanes="1" speed="19.44" />
	<edge id="241594963_41240264_41240283_41240272" from="41240272" to="41240283" numLanes="1" speed="19.44" />
	<edge id="14133895_134852290_134852292_134852290" from="134852290" to="134852292" numLanes="1" speed="8.33" />
	<edge id="8162640_41240332_41240325_41240332" from="41240332" to="41240325" numLanes="1" speed="8.33" />
	<edge id="5563321_41240350_41240297_41240350" from="41240350" to="41240297" numLanes="1" speed="8.33" />
	<edge id="14116613_134580604_134581361_134580604" from="134580604" to="134581359" numLanes="1" speed="8.33" />
	<edge id="14116613_134580604_134581361_134581359" from="134581359" to="134581361" numLanes="1" speed="8.33" />
	<edge id="9532209_73603958_73601720_73603958" from="73603958" to="73603957" numLanes="1" speed="8.33" />
	<edge id="9532209_73603958_73601720_73603957" from="73603957" to="853827020" numLanes="1" speed="8.33" />
	<edge id="9532209_73603958_73601720_853827020" from="853827020" to="73603956" numLanes="1" speed="8.33" />
	<edge id="9532209_73603958_73601720_73603956" from="73603956" to="73603955" numLanes="1" speed="8.33" />
	<edge id="9532209_73603958_73601720_73603955" from="73603955" to="73601720" numLanes="1" speed="8.33" />
	<edge id="10998395_977652306_29768668_977652306" from="977652306" to="29768668" numLanes="1" speed="8.33" />
	<edge id="15808283_158847492_158847493_158847492" from="158847492" to="2134619931" numLanes="1" speed="8.33" />
	<edge id="15808283_158847492_158847493_2134619931" from="2134619931" to="5162438459" numLanes="1" speed="8.33" />
	<edge id="15808283_158847492_158847493_5162438459" from="5162438459" to="2134619930" numLanes="1" speed="8.33" />
	<edge id="15808283_158847492_158847493_2134619930" from="2134619930" to="158847493" numLanes="1" speed="8.33" />
	<edge id="64386552_41240214_41240204_41240214" from="41240214" to="792270064" numLanes="1" speed="8.33" />
	<edge id="64386552_41240214_41240204_792270064" from="792270064" to="33965062" numLanes="1" speed="8.33" />
	<edge id="64386552_41240214_41240204_33965062" from="33965062" to="2407315926" numLanes="1" speed="8.33" />
	<edge id="64386552_41240214_41240204_2407315926" from="2407315926" to="41240209" numLanes="1" speed="8.33" />
	<edge id="64386552_41240214_41240204_41240209" from="41240209" to="3936632848" numLanes="1" speed="8.33" />
	<edge id="64386552_41240214_41240204_3936632848" from="3936632848" to="41240204" numLanes="1" speed="8.33" />
	<edge id="9658611_75661835_75661834_75661835" from="75661835" to="75661834" numLanes="1" speed="8.33" />
	<edge id="9531655_73631556_73601720_73631556" from="73631556" to="73601720" numLanes="1" speed="13.89" />
	<edge id="71846222_5280879544_853827090_5280879544" from="5280879544" to="5280879545" numLanes="1" speed="8.33" />
	<edge id="71846222_5280879544_853827090_5280879545" from="5280879545" to="853827025" numLanes="1" speed="8.33" />
	<edge id="71846222_5280879544_853827090_853827025" from="853827025" to="853827090" numLanes="1" speed="8.33" />
	<edge id="186469717_1971759905_3290027486_1971759905" from="1971759905" to="267922858" numLanes="2" speed="36.11" />
	<edge id="186469717_1971759905_3290027486_267922858" from="267922858" to="3290027486" numLanes="2" speed="36.11" />
	<edge id="15808283_158847492_158847491_158847492" from="158847492" to="158847491" numLanes="1" speed="8.33" />
	<edge id="15744374_157563031_157564457_157563031" from="157563031" to="2614624070" numLanes="1" speed="8.33" />
	<edge id="15744374_157563031_157564457_2614624070" from="2614624070" to="157564457" numLanes="1" speed="8.33" />
	<edge id="23995154_260162571_260162582_260162571" from="260162571" to="260162582" numLanes="1" speed="8.33" />
	<edge id="14134369_134861059_134862553_134861059" from="134861059" to="134862553" numLanes="1" speed="8.33" />
	<edge id="15743439_157535175_157535172_157535175" from="157535175" to="157535172" numLanes="1" speed="8.33" />
	<edge id="9658611_75661835_75661837_75661835" from="75661835" to="2509637418" numLanes="1" speed="8.33" />
	<edge id="9658611_75661835_75661837_2509637418" from="2509637418" to="75661837" numLanes="1" speed="8.33" />
	<edge id="15807951_158840869_158842345_158840869" from="158840869" to="158842345" numLanes="1" speed="8.33" />
	<edge id="47431897_603698751_157571608_603698751" from="603698751" to="503700382" numLanes="1" speed="8.33" />
	<edge id="47431897_603698751_157571608_503700382" from="503700382" to="157571607" numLanes="1" speed="8.33" />
	<edge id="47431897_603698751_157571608_157571607" from="157571607" to="157571608" numLanes="1" speed="8.33" />
	<edge id="23995154_260162571_260162579_260162571" from="260162571" to="260162579" numLanes="1" speed="8.33" />
	<edge id="11009393_98039259_98043799_98039259" from="98039259" to="411294352" numLanes="1" speed="8.33" />
	<edge id="11009393_98039259_98043799_411294352" from="411294352" to="98043799" numLanes="1" speed="8.33" />
	<edge id="10952112_3136099531_29768657_3136099531" from="3136099531" to="3087640007" numLanes="2" speed="8.33" />
	<edge id="10952112_3136099531_29768657_3087640007" from="3087640007" to="51553667" numLanes="2" speed="8.33" />
	<edge id="10952112_3136099531_29768657_51553667" from="51553667" to="2301888683" numLanes="2" speed="8.33" />
	<edge id="10952112_3136099531_29768657_2301888683" from="2301888683" to="29768657" numLanes="2" speed="8.33" />
	<edge id="10950037_97602304_97602618_97602304" from="97602304" to="3083049686" numLanes="1" speed="8.33" />
	<edge id="10950037_97602304_97602618_3083049686" from="3083049686" to="97602618" numLanes="1" speed="8.33" />
	<edge id="52960250_97602623_97602618_97602623" from="97602623" to="2279008234" numLanes="1" speed="8.33" />
	<edge id="52960250_97602623_97602618_2279008234" from="2279008234" to="97602619" numLanes="1" speed="8.33" />
	<edge id="52960250_97602623_97602618_97602619" from="97602619" to="3083049685" numLanes="1" speed="8.33" />
	<edge id="52960250_97602623_97602618_3083049685" from="3083049685" to="97602618" numLanes="1" speed="8.33" />
	<edge id="25628306_279322382_279322359_279322382" from="279322382" to="2311924030" numLanes="1" speed="8.33" />
	<edge id="25628306_279322382_279322359_2311924030" from="2311924030" to="279322381" numLanes="1" speed="8.33" />
	<edge id="25628306_279322382_279322359_279322381" from="279322381" to="279322380" numLanes="1" speed="8.33" />
	<edge id="25628306_279322382_279322359_279322380" from="279322380" to="279322379" numLanes="1" speed="8.33" />
	<edge id="25628306_279322382_279322359_279322379" from="279322379" to="279322378" numLanes="1" speed="8.33" />
	<edge id="25628306_279322382_279322359_279322378" from="279322378" to="279322377" numLanes="1" speed="8.33" />
	<edge id="25628306_279322382_279322359_279322377" from="279322377" to="595752836" numLanes="1" speed="8.33" />
	<edge id="25628306_279322382_279322359_595752836" from="595752836" to="279322359" numLanes="1" speed="8.33" />
	<edge id="340594642_279322446_3478398039_279322446" from="279322446" to="3478398039" numLanes="1" speed="8.33" />
	<edge id="10995578_97949961_97949960_97949961" from="97949961" to="97949960" numLanes="1" speed="8.33" />
	<edge id="15807806_158834460_158837959_158834460" from="158834460" to="158837959" numLanes="1" speed="8.33" />
	<edge id="23756365_3136099533_97542730_3136099533" from="3136099533" to="97542730" numLanes="1" speed="8.33" />
	<edge id="458350632_1499243086_97949740_1499243086" from="1499243086" to="97949740" numLanes="1" speed="8.33" />
	<edge id="50834549_364129463_648364362_364129463" from="364129463" to="4796105238" numLanes="1" speed="19.44" />
	<edge id="50834549_364129463_648364362_4796105238" from="4796105238" to="42180816" numLanes="1" speed="19.44" />
	<edge id="50834549_364129463_648364362_42180816" from="42180816" to="447858889" numLanes="1" speed="19.44" />
	<edge id="50834549_364129463_648364362_447858889" from="447858889" to="648364362" numLanes="1" speed="19.44" />
	<edge id="5993642_3694407238_41240756_3694407238" from="3694407238" to="288331823" numLanes="1" speed="8.33" />
	<edge id="5993642_3694407238_41240756_288331823" from="288331823" to="41240756" numLanes="1" speed="8.33" />
	<edge id="15744417_157566050_157566051_157566050" from="157566050" to="157566051" numLanes="1" speed="8.33" />
	<edge id="604039155_49895713_49895716_49895713" from="49895713" to="2629972777" numLanes="1" speed="8.33" />
	<edge id="604039155_49895713_49895716_2629972777" from="2629972777" to="2629972781" numLanes="1" speed="8.33" />
	<edge id="604039155_49895713_49895716_2629972781" from="2629972781" to="2629972784" numLanes="1" speed="8.33" />
	<edge id="604039155_49895713_49895716_2629972784" from="2629972784" to="2629972788" numLanes="1" speed="8.33" />
	<edge id="604039155_49895713_49895716_2629972788" from="2629972788" to="2629972790" numLanes="1" speed="8.33" />
	<edge id="604039155_49895713_49895716_2629972790" from="2629972790" to="2629972787" numLanes="1" speed="8.33" />
	<edge id="604039155_49895713_49895716_2629972787" from="2629972787" to="2630059652" numLanes="1" speed="8.33" />
	<edge id="604039155_49895713_49895716_2630059652" from="2630059652" to="49895714" numLanes="1" speed="8.33" />
	<edge id="604039155_49895713_49895716_49895714" from="49895714" to="49895715" numLanes="1" speed="8.33" />
	<edge id="604039155_49895713_49895716_49895715" from="49895715" to="2629972805" numLanes="1" speed="8.33" />
	<edge id="604039155_49895713_49895716_2629972805" from="2629972805" to="2629972804" numLanes="1" speed="8.33" />
	<edge id="604039155_49895713_49895716_2629972804" from="2629972804" to="49895716" numLanes="1" speed="8.33" />
	<edge id="284566578_41239986_2882913628_41239986" from="41239986" to="3039095542" numLanes="1" speed="19.44" />
	<edge id="284566578_41239986_2882913628_3039095542" from="3039095542" to="3826524606" numLanes="1" speed="19.44" />
	<edge id="284566578_41239986_2882913628_3826524606" from="3826524606" to="2882913628" numLanes="1" speed="19.44" />
	<edge id="11015366_29768672_97967306_29768672" from="29768672" to="3149851109" numLanes="1" speed="13.89" />
	<edge id="11015366_29768672_97967306_3149851109" from="3149851109" to="3996884861" numLanes="1" speed="13.89" />
	<edge id="11015366_29768672_97967306_3996884861" from="3996884861" to="3149851085" numLanes="1" speed="13.89" />
	<edge id="11015366_29768672_97967306_3149851085" from="3149851085" to="97967306" numLanes="1" speed="13.89" />
	<edge id="5993642_41240756_3694407238_41240756" from="41240756" to="288331823" numLanes="1" speed="8.33" />
	<edge id="5993642_41240756_3694407238_288331823" from="288331823" to="3694407238" numLanes="1" speed="8.33" />
	<edge id="111283468_258077570_289031315_258077570" from="258077570" to="88954038" numLanes="1" speed="8.33" />
	<edge id="111283468_258077570_289031315_88954038" from="88954038" to="638559172" numLanes="1" speed="8.33" />
	<edge id="111283468_258077570_289031315_638559172" from="638559172" to="260072202" numLanes="1" speed="8.33" />
	<edge id="111283468_258077570_289031315_260072202" from="260072202" to="6233791920" numLanes="1" speed="8.33" />
	<edge id="111283468_258077570_289031315_6233791920" from="6233791920" to="6233791930" numLanes="1" speed="8.33" />
	<edge id="111283468_258077570_289031315_6233791930" from="6233791930" to="373782110" numLanes="1" speed="8.33" />
	<edge id="111283468_258077570_289031315_373782110" from="373782110" to="4668269992" numLanes="1" speed="8.33" />
	<edge id="111283468_258077570_289031315_4668269992" from="4668269992" to="289031315" numLanes="1" speed="8.33" />
	<edge id="23994425_260147840_260147845_260147840" from="260147840" to="260147845" numLanes="1" speed="8.33" />
	<edge id="14134177_134858046_134845511_134858046" from="134858046" to="252326337" numLanes="1" speed="8.33" />
	<edge id="14134177_134858046_134845511_252326337" from="252326337" to="134845511" numLanes="1" speed="8.33" />
	<edge id="73017975_866613635_866614154_866613635" from="866613635" to="866614310" numLanes="2" speed="16.67" />
	<edge id="73017975_866613635_866614154_866614310" from="866614310" to="866614136" numLanes="2" speed="16.67" />
	<edge id="73017975_866613635_866614154_866614136" from="866614136" to="866614383" numLanes="2" speed="16.67" />
	<edge id="73017975_866613635_866614154_866614383" from="866614383" to="866614387" numLanes="2" speed="16.67" />
	<edge id="73017975_866613635_866614154_866614387" from="866614387" to="866614771" numLanes="2" speed="16.67" />
	<edge id="73017975_866613635_866614154_866614771" from="866614771" to="866613771" numLanes="2" speed="16.67" />
	<edge id="73017975_866613635_866614154_866613771" from="866613771" to="866613792" numLanes="2" speed="16.67" />
	<edge id="73017975_866613635_866614154_866613792" from="866613792" to="2026362896" numLanes="2" speed="16.67" />
	<edge id="73017975_866613635_866614154_2026362896" from="2026362896" to="866614266" numLanes="2" speed="16.67" />
	<edge id="73017975_866613635_866614154_866614266" from="866614266" to="866614429" numLanes="2" speed="16.67" />
	<edge id="73017975_866613635_866614154_866614429" from="866614429" to="866614541" numLanes="2" speed="16.67" />
	<edge id="73017975_866613635_866614154_866614541" from="866614541" to="866614154" numLanes="2" speed="16.67" />
	<edge id="25118655_273486661_273486662_273486661" from="273486661" to="273486662" numLanes="1" speed="8.33" />
	<edge id="50833761_41240286_260162515_41240286" from="41240286" to="260162515" numLanes="1" speed="13.89" />
	<edge id="10416386_88954059_88954062_88954059" from="88954059" to="88954061" numLanes="1" speed="8.33" />
	<edge id="10416386_88954059_88954062_88954061" from="88954061" to="88954062" numLanes="1" speed="8.33" />
	<edge id="241092241_2492014459_33965032_2492014459" from="2492014459" to="33965024" numLanes="1" speed="16.67" />
	<edge id="241092241_2492014459_33965032_33965024" from="33965024" to="2492014460" numLanes="1" speed="16.67" />
	<edge id="241092241_2492014459_33965032_2492014460" from="2492014460" to="33965020" numLanes="1" speed="16.67" />
	<edge id="241092241_2492014459_33965032_33965020" from="33965020" to="362755578" numLanes="1" speed="16.67" />
	<edge id="241092241_2492014459_33965032_362755578" from="362755578" to="33965026" numLanes="1" speed="16.67" />
	<edge id="241092241_2492014459_33965032_33965026" from="33965026" to="33965030" numLanes="1" speed="16.67" />
	<edge id="241092241_2492014459_33965032_33965030" from="33965030" to="33965032" numLanes="1" speed="16.67" />
	<edge id="365829349_160740043_289031316_160740043" from="160740043" to="1137649800" numLanes="1" speed="13.89" />
	<edge id="365829349_160740043_289031316_1137649800" from="1137649800" to="4519610880" numLanes="1" speed="13.89" />
	<edge id="365829349_160740043_289031316_4519610880" from="4519610880" to="4519610883" numLanes="1" speed="13.89" />
	<edge id="365829349_160740043_289031316_4519610883" from="4519610883" to="470346957" numLanes="1" speed="13.89" />
	<edge id="365829349_160740043_289031316_470346957" from="470346957" to="687443947" numLanes="1" speed="13.89" />
	<edge id="365829349_160740043_289031316_687443947" from="687443947" to="4668269994" numLanes="1" speed="13.89" />
	<edge id="365829349_160740043_289031316_4668269994" from="4668269994" to="3997258783" numLanes="1" speed="13.89" />
	<edge id="365829349_160740043_289031316_3997258783" from="3997258783" to="289031316" numLanes="1" speed="13.89" />
	<edge id="297553853_134859921_3014398531_134859921" from="134859921" to="3014398531" numLanes="1" speed="8.33" />
	<edge id="301757377_98106229_29768673_98106229" from="98106229" to="3242196814" numLanes="1" speed="13.89" />
	<edge id="301757377_98106229_29768673_3242196814" from="3242196814" to="3332835381" numLanes="1" speed="13.89" />
	<edge id="301757377_98106229_29768673_3332835381" from="3332835381" to="2964208508" numLanes="1" speed="13.89" />
	<edge id="301757377_98106229_29768673_2964208508" from="2964208508" to="3996884899" numLanes="1" speed="13.89" />
	<edge id="301757377_98106229_29768673_3996884899" from="3996884899" to="29768673" numLanes="1" speed="13.89" />
	<edge id="10994544_97944524_97948659_97944524" from="97944524" to="975185341" numLanes="1" speed="8.33" />
	<edge id="10994544_97944524_97948659_975185341" from="975185341" to="1279155417" numLanes="1" speed="8.33" />
	<edge id="10994544_97944524_97948659_1279155417" from="1279155417" to="97948659" numLanes="1" speed="8.33" />
	<edge id="10991305_97552351_97535861_97552351" from="97552351" to="278779059" numLanes="1" speed="8.33" />
	<edge id="10991305_97552351_97535861_278779059" from="278779059" to="278779063" numLanes="1" speed="8.33" />
	<edge id="10991305_97552351_97535861_278779063" from="278779063" to="286059827" numLanes="1" speed="8.33" />
	<edge id="10991305_97552351_97535861_286059827" from="286059827" to="97535861" numLanes="1" speed="8.33" />
	<edge id="301757377_98106229_29768674_98106229" from="98106229" to="3996884863" numLanes="1" speed="13.89" />
	<edge id="301757377_98106229_29768674_3996884863" from="3996884863" to="29768674" numLanes="1" speed="13.89" />
	<edge id="14133895_134852290_134852288_134852290" from="134852290" to="2102485083" numLanes="1" speed="8.33" />
	<edge id="14133895_134852290_134852288_2102485083" from="2102485083" to="2102485081" numLanes="1" speed="8.33" />
	<edge id="14133895_134852290_134852288_2102485081" from="2102485081" to="134852288" numLanes="1" speed="8.33" />
	<edge id="6191321_51501321_51501332_51501321" from="51501321" to="4795435578" numLanes="1" speed="8.33" />
	<edge id="6191321_51501321_51501332_4795435578" from="4795435578" to="51501355" numLanes="1" speed="8.33" />
	<edge id="6191321_51501321_51501332_51501355" from="51501355" to="4795435577" numLanes="1" speed="8.33" />
	<edge id="6191321_51501321_51501332_4795435577" from="4795435577" to="51501352" numLanes="1" speed="8.33" />
	<edge id="6191321_51501321_51501332_51501352" from="51501352" to="4795435574" numLanes="1" speed="8.33" />
	<edge id="6191321_51501321_51501332_4795435574" from="4795435574" to="4795435573" numLanes="1" speed="8.33" />
	<edge id="6191321_51501321_51501332_4795435573" from="4795435573" to="4795435576" numLanes="1" speed="8.33" />
	<edge id="6191321_51501321_51501332_4795435576" from="4795435576" to="4795435575" numLanes="1" speed="8.33" />
	<edge id="6191321_51501321_51501332_4795435575" from="4795435575" to="51501347" numLanes="1" speed="8.33" />
	<edge id="6191321_51501321_51501332_51501347" from="51501347" to="4795435572" numLanes="1" speed="8.33" />
	<edge id="6191321_51501321_51501332_4795435572" from="4795435572" to="4795435571" numLanes="1" speed="8.33" />
	<edge id="6191321_51501321_51501332_4795435571" from="4795435571" to="4795435570" numLanes="1" speed="8.33" />
	<edge id="6191321_51501321_51501332_4795435570" from="4795435570" to="51501340" numLanes="1" speed="8.33" />
	<edge id="6191321_51501321_51501332_51501340" from="51501340" to="4795710352" numLanes="1" speed="8.33" />
	<edge id="6191321_51501321_51501332_4795710352" from="4795710352" to="4795710353" numLanes="1" speed="8.33" />
	<edge id="6191321_51501321_51501332_4795710353" from="4795710353" to="51501337" numLanes="1" speed="8.33" />
	<edge id="6191321_51501321_51501332_51501337" from="51501337" to="4795441143" numLanes="1" speed="8.33" />
	<edge id="6191321_51501321_51501332_4795441143" from="4795441143" to="4795441144" numLanes="1" speed="8.33" />
	<edge id="6191321_51501321_51501332_4795441144" from="4795441144" to="4795441145" numLanes="1" speed="8.33" />
	<edge id="6191321_51501321_51501332_4795441145" from="4795441145" to="51501332" numLanes="1" speed="8.33" />
	<edge id="116570249_866614488_866613702_866614488" from="866614488" to="866614637" numLanes="2" speed="33.33" />
	<edge id="116570249_866614488_866613702_866614637" from="866614637" to="1313885394" numLanes="2" speed="33.33" />
	<edge id="116570249_866614488_866613702_1313885394" from="1313885394" to="866613702" numLanes="2" speed="33.33" />
	<edge id="262278114_2679401899_2679401900_2679401899" from="2679401899" to="2679401900" numLanes="1" speed="8.33" />
	<edge id="134240439_99232367_88954030_99232367" from="99232367" to="5680079313" numLanes="1" speed="13.89" />
	<edge id="134240439_99232367_88954030_5680079313" from="5680079313" to="5680079759" numLanes="1" speed="13.89" />
	<edge id="134240439_99232367_88954030_5680079759" from="5680079759" to="88954030" numLanes="1" speed="13.89" />
	<edge id="437264607_4350821574_4350821569_4350821574" from="4350821574" to="4350821573" numLanes="1" speed="8.33" />
	<edge id="437264607_4350821574_4350821569_4350821573" from="4350821573" to="4350821572" numLanes="1" speed="8.33" />
	<edge id="437264607_4350821574_4350821569_4350821572" from="4350821572" to="4350821571" numLanes="1" speed="8.33" />
	<edge id="437264607_4350821574_4350821569_4350821571" from="4350821571" to="4350821570" numLanes="1" speed="8.33" />
	<edge id="437264607_4350821574_4350821569_4350821570" from="4350821570" to="4350821569" numLanes="1" speed="8.33" />
	<edge id="14134047_96008071_134855538_96008071" from="96008071" to="134855538" numLanes="1" speed="8.33" />
	<edge id="15808283_158847491_158846996_158847491" from="158847491" to="5162438465" numLanes="1" speed="8.33" />
	<edge id="15808283_158847491_158846996_5162438465" from="5162438465" to="158847490" numLanes="1" speed="8.33" />
	<edge id="15808283_158847491_158846996_158847490" from="158847490" to="158847489" numLanes="1" speed="8.33" />
	<edge id="15808283_158847491_158846996_158847489" from="158847489" to="5162443279" numLanes="1" speed="8.33" />
	<edge id="15808283_158847491_158846996_5162443279" from="5162443279" to="158847487" numLanes="1" speed="8.33" />
	<edge id="15808283_158847491_158846996_158847487" from="158847487" to="5162443298" numLanes="1" speed="8.33" />
	<edge id="15808283_158847491_158846996_5162443298" from="5162443298" to="391307753" numLanes="1" speed="8.33" />
	<edge id="15808283_158847491_158846996_391307753" from="391307753" to="5162443290" numLanes="1" speed="8.33" />
	<edge id="15808283_158847491_158846996_5162443290" from="5162443290" to="5162443304" numLanes="1" speed="8.33" />
	<edge id="15808283_158847491_158846996_5162443304" from="5162443304" to="2452926873" numLanes="1" speed="8.33" />
	<edge id="15808283_158847491_158846996_2452926873" from="2452926873" to="5162443288" numLanes="1" speed="8.33" />
	<edge id="15808283_158847491_158846996_5162443288" from="5162443288" to="2452926888" numLanes="1" speed="8.33" />
	<edge id="15808283_158847491_158846996_2452926888" from="2452926888" to="158847486" numLanes="1" speed="8.33" />
	<edge id="15808283_158847491_158846996_158847486" from="158847486" to="158847485" numLanes="1" speed="8.33" />
	<edge id="15808283_158847491_158846996_158847485" from="158847485" to="158846996" numLanes="1" speed="8.33" />
	<edge id="42859278_536435097_536435191_536435097" from="536435097" to="536435191" numLanes="1" speed="8.33" />
	<edge id="5653438_41240665_874570950_41240665" from="41240665" to="2032424252" numLanes="1" speed="8.33" />
	<edge id="5653438_41240665_874570950_2032424252" from="2032424252" to="874570950" numLanes="1" speed="8.33" />
	<edge id="10995891_1499243086_97951344_1499243086" from="1499243086" to="97951344" numLanes="1" speed="8.33" />
	<edge id="437264607_4350821574_4350821575_4350821574" from="4350821574" to="4350821575" numLanes="1" speed="8.33" />
	<edge id="14123326_134684860_134690727_134684860" from="134684860" to="2714283128" numLanes="1" speed="8.33" />
	<edge id="14123326_134684860_134690727_2714283128" from="2714283128" to="134701994" numLanes="1" speed="8.33" />
	<edge id="14123326_134684860_134690727_134701994" from="134701994" to="134690727" numLanes="1" speed="8.33" />
	<edge id="15995139_98112057_160731173_98112057" from="98112057" to="160731173" numLanes="1" speed="8.33" />
	<edge id="5563320_41240308_41240350_41240308" from="41240308" to="41240350" numLanes="1" speed="8.33" />
	<edge id="516127725_1587635313_5038926703_1587635313" from="1587635313" to="5038926703" numLanes="2" speed="22.22" />
	<edge id="9659218_75673669_75673671_75673669" from="75673669" to="75673671" numLanes="1" speed="8.33" />
	<edge id="14119744_134615476_134645275_134615476" from="134615476" to="134645275" numLanes="1" speed="8.33" />
	<edge id="11143968_99238160_2148278235_99238160" from="99238160" to="2148278235" numLanes="1" speed="8.33" />
	<edge id="10953348_97626411_97628856_97626411" from="97626411" to="97628856" numLanes="1" speed="8.33" />
	<edge id="27108440_134846766_134846765_134846766" from="134846766" to="134846765" numLanes="1" speed="8.33" />
	<edge id="166752304_303184519_75673057_303184519" from="303184519" to="739356830" numLanes="1" speed="19.44" />
	<edge id="166752304_303184519_75673057_739356830" from="739356830" to="75673057" numLanes="1" speed="19.44" />
	<edge id="78376720_919907501_160711365_919907501" from="919907501" to="160713865" numLanes="1" speed="8.33" />
	<edge id="78376720_919907501_160711365_160713865" from="160713865" to="160713867" numLanes="1" speed="8.33" />
	<edge id="78376720_919907501_160711365_160713867" from="160713867" to="160711365" numLanes="1" speed="8.33" />
	<edge id="24212614_262166754_5071329617_262166754" from="262166754" to="2286711624" numLanes="1" speed="8.33" />
	<edge id="24212614_262166754_5071329617_2286711624" from="2286711624" to="5071329617" numLanes="1" speed="8.33" />
	<edge id="281524285_307863887_40446597_307863887" from="307863887" to="262389055" numLanes="1" speed="13.89" />
	<edge id="281524285_307863887_40446597_262389055" from="262389055" to="567046638" numLanes="1" speed="13.89" />
	<edge id="281524285_307863887_40446597_567046638" from="567046638" to="40446597" numLanes="1" speed="13.89" />
	<edge id="15808028_158842717_158843957_158842717" from="158842717" to="158843957" numLanes="1" speed="8.33" />