<nodes>
	<node id="2104969608" x="399263.7892" y="5835166.8728" z="0.0000" type="priority" />
	<node id="292273042" x="398238.4873" y="5832597.2495" z="0.0000" type="priority" />
	<node id="2632245436" x="399909.1546" y="5834705.7934" z="0.0000" type="priority" />
	<node id="4668270016" x="397889.0699" y="5833859.5288" z="0.0000" type="priority" />
	<node id="99243532" x="398680.3171" y="5833670.1479" z="0.0000" type="priority" />
	<node id="134655644" x="400685.2319" y="5834361.2443" z="0.0000" type="priority" />
	<node id="4795435578" x="411307.9121" y="5835750.9369" z="0.0000" type="priority" />
	<node id="134655645" x="400791.6125" y="5834357.1197" z="0.0000" type="priority" />
	<node id="4795435577" x="411293.6522" y="5835798.5062" z="0.0000" type="priority" />
	<node id="4795435576" x="411252.2134" y="5835830.1590" z="0.0000" type="priority" />
	<node id="134655643" x="400650.4950" y="5834370.8761" z="0.0000" type="priority" />
	<node id="2502156136" x="398508.9228" y="5832476.2582" z="0.0000" type="priority" />
	<node id="4795435575" x="411239.9276" y="5835833.4314" z="0.0000" type="priority" />
	<node id="309144405" x="406386.2525" y="5833284.1315" z="0.0000" type="priority" />
	<node id="4795435574" x="411276.5462" y="5835818.6673" z="0.0000" type="priority" />
	<node id="4795435573" x="411263.9986" y="5835825.7719" z="0.0000" type="priority" />
	<node id="2507201288" x="405406.7794" y="5829294.3220" z="0.0000" type="priority" />
	<node id="4795435572" x="411204.3105" y="5835833.7244" z="0.0000" type="priority" />
	<node id="4795435571" x="411174.5367" y="5835831.3519" z="0.0000" type="priority" />
	<node id="2507201286" x="405800.4051" y="5829093.0407" z="0.0000" type="priority" />
	<node id="3936632901" x="410360.3328" y="5830576.8085" z="0.0000" type="priority" />
	<node id="4795435570" x="411155.5688" y="5835827.6477" z="0.0000" type="priority" />
	<node id="2507201284" x="405411.6041" y="5829343.7091" z="0.0000" type="priority" />
	<node id="2507201282" x="405413.2556" y="5829347.4825" z="0.0000" type="priority" />
	<node id="303814774" x="407869.7398" y="5835743.2116" z="0.0000" type="priority" />
	<node id="73640194" x="400806.4298" y="5833225.8545" z="0.0000" type="priority" />
	<node id="158842715" x="402722.3243" y="5835233.7308" z="0.0000" type="priority" />
	<node id="73640193" x="400692.4617" y="5833465.5384" z="0.0000" type="priority" />
	<node id="158842716" x="402770.7720" y="5835259.3131" z="0.0000" type="priority" />
	<node id="158842717" x="402817.3134" y="5835283.9881" z="0.0000" type="priority" />
	<node id="390507042" x="400648.3030" y="5835509.1539" z="0.0000" type="priority" />
	<node id="40446724" x="410803.9069" y="5831880.9643" z="0.0000" type="priority" />
	<node id="292273035" x="398252.3856" y="5832585.8656" z="0.0000" type="priority" />
	<node id="28830219" x="403178.8049" y="5836408.5328" z="0.0000" type="priority" />
	<node id="1279159172" x="397608.1145" y="5830871.6595" z="0.0000" type="priority" />
	<node id="1407260241" x="399382.7724" y="5832896.7457" z="0.0000" type="priority" />
	<node id="536436204" x="402137.4053" y="5828979.8696" z="0.0000" type="priority" />
	<node id="73640197" x="400999.4360" y="5833088.6405" z="0.0000" type="priority" />
	<node id="1279159175" x="397630.3115" y="5830854.7254" z="0.0000" type="priority" />
	<node id="73640196" x="400821.0303" y="5833201.2224" z="0.0000" type="priority" />
	<node id="2673252746" x="402805.0556" y="5833768.4318" z="0.0000" type="priority" />
	<node id="2673252747" x="402810.0201" y="5833779.8159" z="0.0000" type="priority" />
	<node id="291010852" x="398255.0388" y="5832234.3095" z="0.0000" type="priority" />
	<node id="2673252745" x="402797.6560" y="5833751.3547" z="0.0000" type="priority" />
	<node id="1407260246" x="398757.2490" y="5832210.2632" z="0.0000" type="priority" />
	<node id="669067341" x="399923.3493" y="5829611.3200" z="0.0000" type="priority" />
	<node id="2492014453" x="404744.7986" y="5830112.1148" z="0.0000" type="priority" />
	<node id="2673252748" x="402818.6189" y="5833825.1429" z="0.0000" type="priority" />
	<node id="2673252749" x="402915.4932" y="5833846.4350" z="0.0000" type="priority" />
	<node id="279583909" x="410427.8940" y="5830688.1008" z="0.0000" type="priority" />
	<node id="40446718" x="410801.0065" y="5831889.3287" z="0.0000" type="priority" />
	<node id="97537072" x="398159.5904" y="5832271.7195" z="0.0000" type="priority" />
	<node id="97537073" x="398248.8305" y="5832456.0061" z="0.0000" type="priority" />
	<node id="40446735" x="410846.7110" y="5831671.4503" z="0.0000" type="priority" />
	<node id="1407260251" x="398662.6755" y="5832144.2837" z="0.0000" type="priority" />
	<node id="2492014459" x="404514.7006" y="5830414.0747" z="0.0000" type="priority" />
	<node id="4075430821" x="398488.9245" y="5830903.6991" z="0.0000" type="priority" />
	<node id="1407260250" x="398677.2038" y="5832133.4555" z="0.0000" type="priority" />
	<node id="158849355" x="402455.0419" y="5835874.6958" z="0.0000" type="priority" />
	<node id="4795435599" x="411242.8772" y="5835651.8494" z="0.0000" type="priority" />
	<node id="3918871258" x="398201.6970" y="5830197.8028" z="0.0000" type="priority" />
	<node id="160724196" x="396942.4787" y="5828444.3934" z="0.0000" type="priority" />
	<node id="2492014460" x="404316.8357" y="5830690.9465" z="0.0000" type="priority" />
	<node id="160676837" x="400461.3164" y="5829090.0562" z="0.0000" type="priority" />
	<node id="2492014461" x="403184.4001" y="5834030.9920" z="0.0000" type="priority" />
	<node id="2629972804" x="399781.2540" y="5828952.6814" z="0.0000" type="priority" />
	<node id="2629972805" x="399788.8212" y="5828936.4808" z="0.0000" type="priority" />
	<node id="160724195" x="396894.2778" y="5828447.7252" z="0.0000" type="priority" />
	<node id="2250683384" x="399784.6100" y="5832293.4448" z="0.0000" type="priority" />
	<node id="160724194" x="396843.7350" y="5828450.5394" z="0.0000" type="priority" />
	<node id="2250683385" x="400725.0521" y="5832826.0764" z="0.0000" type="priority" />
	<node id="160268296" x="400455.0276" y="5836253.7147" z="0.0000" type="priority" />
	<node id="98227653" x="397101.6259" y="5829618.7222" z="0.0000" type="priority" />
	<node id="1543887358" x="401664.9726" y="5835049.0552" z="0.0000" type="priority" />
	<node id="1543887359" x="401750.3167" y="5835071.5466" z="0.0000" type="priority" />
	<node id="98227655" x="397420.0530" y="5829396.1626" z="0.0000" type="priority" />
	<node id="4075430820" x="398486.4538" y="5830899.1994" z="0.0000" type="priority" />
	<node id="258999179" x="398139.9613" y="5832645.4622" z="0.0000" type="priority" />
	<node id="134678318" x="400385.8780" y="5832124.5815" z="0.0000" type="priority" />
	<node id="1816060386" x="402598.6867" y="5830776.6736" z="0.0000" type="priority" />
	<node id="2074491800" x="401461.9307" y="5835346.7121" z="0.0000" type="priority" />
	<node id="2450938921" x="403716.2258" y="5835488.7067" z="0.0000" type="priority" />
	<node id="2313214837" x="398495.0017" y="5831873.8825" z="0.0000" type="priority" />
	<node id="4519610880" x="397729.9206" y="5834034.4265" z="0.0000" type="priority" />
	<node id="157512387" x="401498.1685" y="5834143.9279" z="0.0000" type="priority" />
	<node id="2313214835" x="398507.8853" y="5831888.1245" z="0.0000" type="priority" />
	<node id="4519610883" x="397689.2877" y="5834078.0861" z="0.0000" type="priority" />
	<node id="157512386" x="401519.3426" y="5834074.8236" z="0.0000" type="priority" />
	<node id="157572843" x="402016.4357" y="5833967.3234" z="0.0000" type="priority" />
	<node id="2074491808" x="401419.8672" y="5835359.7804" z="0.0000" type="priority" />
	<node id="286061728" x="398481.2326" y="5832579.0387" z="0.0000" type="priority" />
	<node id="2317673484" x="398041.4800" y="5830200.7126" z="0.0000" type="priority" />
	<node id="2074491804" x="401390.5886" y="5835356.3225" z="0.0000" type="priority" />
	<node id="2450938923" x="403728.8809" y="5835494.0202" z="0.0000" type="priority" />
	<node id="2450938925" x="404137.4187" y="5835874.2521" z="0.0000" type="priority" />
	<node id="1279159137" x="397996.7771" y="5831490.7338" z="0.0000" type="priority" />
	<node id="4410584534" x="400924.7306" y="5833351.4561" z="0.0000" type="priority" />
	<node id="1279159135" x="397886.6880" y="5831319.7062" z="0.0000" type="priority" />
	<node id="1279159134" x="397826.5029" y="5831223.4572" z="0.0000" type="priority" />
	<node id="2741807932" x="401617.9708" y="5832706.4707" z="0.0000" type="priority" />
	<node id="5666995787" x="403076.2611" y="5834877.1570" z="0.0000" type="priority" />
	<node id="1279159138" x="397960.2125" y="5831522.5547" z="0.0000" type="priority" />
	<node id="5666995788" x="403070.3824" y="5834899.3388" z="0.0000" type="priority" />
	<node id="157512389" x="401486.1635" y="5834176.1164" z="0.0000" type="priority" />
	<node id="2134619930" x="401364.4520" y="5835531.4920" z="0.0000" type="priority" />
	<node id="2134619931" x="401382.5809" y="5835533.6731" z="0.0000" type="priority" />
	<node id="2074491810" x="401453.8796" y="5835359.7824" z="0.0000" type="priority" />
	<node id="3370634308" x="398327.3674" y="5831068.6971" z="0.0000" type="priority" />
	<node id="97602623" x="398488.6588" y="5832408.2247" z="0.0000" type="priority" />
	<node id="4519610871" x="396401.7560" y="5833926.5574" z="0.0000" type="priority" />
	<node id="150942629" x="402145.5765" y="5828843.6564" z="0.0000" type="priority" />
	<node id="157559861" x="402443.4367" y="5833714.5999" z="0.0000" type="priority" />
	<node id="2074491818" x="401478.9057" y="5835362.4031" z="0.0000" type="priority" />
	<node id="1279159133" x="397771.7405" y="5831133.7050" z="0.0000" type="priority" />
	<node id="2450938912" x="403231.4963" y="5834996.3471" z="0.0000" type="priority" />
	<node id="2450938914" x="403219.3141" y="5834999.6155" z="0.0000" type="priority" />
	<node id="1279159126" x="397901.6476" y="5831875.0362" z="0.0000" type="priority" />
	<node id="286061720" x="398421.4050" y="5832571.1932" z="0.0000" type="priority" />
	<node id="6264795108" x="402292.2386" y="5835066.2377" z="0.0000" type="priority" />
	<node id="3556490361" x="405388.3389" y="5829533.3591" z="0.0000" type="priority" />
	<node id="97602618" x="398525.2228" y="5832405.8394" z="0.0000" type="priority" />
	<node id="3556490364" x="405374.3461" y="5829519.4659" z="0.0000" type="priority" />
	<node id="97602619" x="398497.2839" y="5832403.9838" z="0.0000" type="priority" />
	<node id="4410584561" x="401001.8870" y="5833382.7587" z="0.0000" type="priority" />
	<node id="160718311" x="396733.4912" y="5828600.1730" z="0.0000" type="priority" />
	<node id="919907501" x="396393.9581" y="5828960.2468" z="0.0000" type="priority" />
	<node id="791313618" x="398240.3619" y="5835429.3093" z="0.0000" type="priority" />
	<node id="2390003921" x="400755.8443" y="5829140.2864" z="0.0000" type="priority" />
	<node id="2390003920" x="400678.3362" y="5829134.6409" z="0.0000" type="priority" />
	<node id="2741807952" x="402416.4323" y="5832956.2882" z="0.0000" type="priority" />
	<node id="1005313038" x="396409.4083" y="5830441.7667" z="0.0000" type="priority" />
	<node id="1005313036" x="396421.9844" y="5830496.2690" z="0.0000" type="priority" />
	<node id="2741807956" x="402347.4421" y="5833004.0354" z="0.0000" type="priority" />
	<node id="3556490353" x="405418.7050" y="5829445.5593" z="0.0000" type="priority" />
	<node id="2673252750" x="402884.8609" y="5833848.7808" z="0.0000" type="priority" />
	<node id="3556490355" x="405347.2887" y="5829360.6776" z="0.0000" type="priority" />
	<node id="2261885304" x="400563.6695" y="5835317.8233" z="0.0000" type="priority" />
	<node id="3556490349" x="405389.1120" y="5829540.7434" z="0.0000" type="priority" />
	<node id="160718309" x="396692.5306" y="5828603.2981" z="0.0000" type="priority" />
	<node id="157554190" x="402167.5567" y="5833340.0054" z="0.0000" type="priority" />
	<node id="1212318593" x="400273.6207" y="5835507.9057" z="0.0000" type="priority" />
	<node id="2628502184" x="399967.4297" y="5834289.5293" z="0.0000" type="priority" />
	<node id="1005286623" x="396399.9737" y="5830636.7525" z="0.0000" type="priority" />
	<node id="1279159153" x="397675.7609" y="5830950.9472" z="0.0000" type="priority" />
	<node id="616218324" x="400519.8461" y="5836165.5094" z="0.0000" type="priority" />
	<node id="2390003912" x="399443.6900" y="5828956.2270" z="0.0000" type="priority" />
	<node id="99238160" x="398038.8536" y="5833694.8583" z="0.0000" type="priority" />
	<node id="158849325" x="401937.8683" y="5835894.0567" z="0.0000" type="priority" />
	<node id="3556490342" x="405261.5741" y="5829302.1999" z="0.0000" type="priority" />
	<node id="3556490346" x="405267.9002" y="5829304.9478" z="0.0000" type="priority" />
	<node id="3556490348" x="405421.1005" y="5829452.0777" z="0.0000" type="priority" />
	<node id="3556490347" x="405420.5831" y="5829448.7942" z="0.0000" type="priority" />
	<node id="1499243086" x="397365.0322" y="5830895.2481" z="0.0000" type="priority" />
	<node id="98225856" x="397164.7538" y="5828872.0385" z="0.0000" type="priority" />
	<node id="98225855" x="397162.4999" y="5828922.9824" z="0.0000" type="priority" />
	<node id="98225854" x="397163.6166" y="5829058.6901" z="0.0000" type="priority" />
	<node id="98225853" x="397164.0653" y="5829129.5395" z="0.0000" type="priority" />
	<node id="40446793" x="410885.6879" y="5831460.1375" z="0.0000" type="priority" />
	<node id="98225857" x="397164.5979" y="5828835.6777" z="0.0000" type="priority" />
	<node id="33965027" x="403535.0766" y="5832279.8478" z="0.0000" type="priority" />
	<node id="33965026" x="403748.7917" y="5831232.9687" z="0.0000" type="priority" />
	<node id="33965024" x="404370.3734" y="5830616.4600" z="0.0000" type="priority" />
	<node id="267926276" x="403275.3251" y="5835933.8730" z="0.0000" type="priority" />
	<node id="267926274" x="403278.1317" y="5835846.2477" z="0.0000" type="priority" />
	<node id="4031964970" x="403601.4770" y="5833734.9176" z="0.0000" type="priority" />
	<node id="33965020" x="404290.5991" y="5830718.5214" z="0.0000" type="priority" />
	<node id="3033571595" x="398685.2737" y="5832940.7728" z="0.0000" type="priority" />
	<node id="3033571594" x="398201.0962" y="5832755.5259" z="0.0000" type="priority" />
	<node id="3033571593" x="398230.0767" y="5832724.3321" z="0.0000" type="priority" />
	<node id="5162443310" x="401458.1104" y="5835620.5169" z="0.0000" type="priority" />
	<node id="98225849" x="397164.2185" y="5829391.5851" z="0.0000" type="priority" />
	<node id="5162443312" x="401430.2382" y="5835612.9244" z="0.0000" type="priority" />
	<node id="21508763" x="402072.7951" y="5830378.3468" z="0.0000" type="priority" />
	<node id="28830297" x="397341.2335" y="5831736.9551" z="0.0000" type="priority" />
	<node id="98225848" x="397164.1946" y="5829577.3233" z="0.0000" type="priority" />
	<node id="5162443311" x="401455.2029" y="5835624.2810" z="0.0000" type="priority" />
	<node id="98225847" x="397164.9473" y="5829771.6131" z="0.0000" type="priority" />
	<node id="5162443314" x="401433.8887" y="5835603.7486" z="0.0000" type="priority" />
	<node id="5162443313" x="401431.2756" y="5835608.0186" z="0.0000" type="priority" />
	<node id="279322450" x="406066.5869" y="5829917.8980" z="0.0000" type="priority" />
	<node id="318087302" x="405689.8883" y="5831922.5462" z="0.0000" type="priority" />
	<node id="33965039" x="404714.3007" y="5830135.7536" z="0.0000" type="priority" />
	<node id="279322451" x="406277.8453" y="5830081.4279" z="0.0000" type="priority" />
	<node id="33965036" x="403507.7862" y="5831792.0602" z="0.0000" type="priority" />
	<node id="5162443309" x="401459.6703" y="5835616.0234" z="0.0000" type="priority" />
	<node id="33965035" x="403622.8675" y="5831324.1022" z="0.0000" type="priority" />
	<node id="98225851" x="397165.1446" y="5829346.4554" z="0.0000" type="priority" />
	<node id="5162443308" x="401459.7233" y="5835611.2821" z="0.0000" type="priority" />
	<node id="2270867510" x="401509.6950" y="5835477.4361" z="0.0000" type="priority" />
	<node id="33965032" x="403661.3421" y="5831287.7252" z="0.0000" type="priority" />
	<node id="51464219" x="409951.3810" y="5830702.0211" z="0.0000" type="priority" />
	<node id="4031964986" x="403894.0712" y="5833896.9023" z="0.0000" type="priority" />
	<node id="51558635" x="399386.6816" y="5831899.7319" z="0.0000" type="priority" />
	<node id="262166918" x="403846.7639" y="5831794.5141" z="0.0000" type="priority" />
	<node id="4031964987" x="403884.9787" y="5833898.7951" z="0.0000" type="priority" />
	<node id="33965030" x="403715.6368" y="5831258.6249" z="0.0000" type="priority" />
	<node id="4031964984" x="403873.4382" y="5833889.1085" z="0.0000" type="priority" />
	<node id="51558637" x="399694.6888" y="5831554.5554" z="0.0000" type="priority" />
	<node id="4031964985" x="403886.7200" y="5833894.4324" z="0.0000" type="priority" />
	<node id="51464215" x="409854.9335" y="5830587.8193" z="0.0000" type="priority" />
	<node id="3033571587" x="399758.2977" y="5832308.4620" z="0.0000" type="priority" />
	<node id="51464211" x="409801.9609" y="5830538.2282" z="0.0000" type="priority" />
	<node id="572283926" x="402232.2996" y="5828553.8203" z="0.0000" type="priority" />
	<node id="97568211" x="397878.6573" y="5831891.0845" z="0.0000" type="priority" />
	<node id="75674083" x="402699.4445" y="5833040.0279" z="0.0000" type="priority" />
	<node id="2313214899" x="398512.1376" y="5831887.4797" z="0.0000" type="priority" />
	<node id="5162443304" x="401627.7610" y="5835738.3302" z="0.0000" type="priority" />
	<node id="5162443307" x="401545.7377" y="5835703.8682" z="0.0000" type="priority" />
	<node id="262166920" x="403765.9409" y="5831746.4149" z="0.0000" type="priority" />
	<node id="262166922" x="403719.3901" y="5831722.9988" z="0.0000" type="priority" />
	<node id="2300059083" x="400619.3748" y="5834383.3052" z="0.0000" type="priority" />
	<node id="33965047" x="405325.2886" y="5829465.5732" z="0.0000" type="priority" />
	<node id="279322445" x="405554.7150" y="5829485.0078" z="0.0000" type="priority" />
	<node id="279322446" x="405562.6704" y="5829544.3486" z="0.0000" type="priority" />
	<node id="33965043" x="404972.1468" y="5829929.7776" z="0.0000" type="priority" />
	<node id="98043247" x="398014.2124" y="5830162.8708" z="0.0000" type="priority" />
	<node id="134851796" x="400434.9624" y="5835195.4815" z="0.0000" type="priority" />
	<node id="279322447" x="405767.7913" y="5829699.0858" z="0.0000" type="priority" />
	<node id="33965042" x="403545.2686" y="5831506.3921" z="0.0000" type="priority" />
	<node id="279322448" x="405993.5000" y="5829865.9634" z="0.0000" type="priority" />
	<node id="2270867505" x="401514.0185" y="5835478.7841" z="0.0000" type="priority" />
	<node id="279322449" x="406010.0377" y="5829879.5534" z="0.0000" type="priority" />
	<node id="33965040" x="403515.9421" y="5831676.5350" z="0.0000" type="priority" />
	<node id="134851795" x="400349.0674" y="5835121.4830" z="0.0000" type="priority" />
	<node id="2270867503" x="401528.8972" y="5835465.4313" z="0.0000" type="priority" />
	<node id="262166924" x="403661.6574" y="5831714.1910" z="0.0000" type="priority" />
	<node id="2300059082" x="400738.2452" y="5834356.8041" z="0.0000" type="priority" />
	<node id="262166925" x="403573.7753" y="5831693.4730" z="0.0000" type="priority" />
	<node id="134851798" x="400560.8982" y="5835310.3356" z="0.0000" type="priority" />
	<node id="262166926" x="403541.9843" y="5832912.2217" z="0.0000" type="priority" />
	<node id="2270867508" x="401419.2338" y="5835477.6408" z="0.0000" type="priority" />
	<node id="2279008224" x="398195.7258" y="5831730.5784" z="0.0000" type="priority" />
	<node id="51464207" x="409692.7327" y="5830458.7132" z="0.0000" type="priority" />
	<node id="2270867507" x="401503.6165" y="5835470.9383" z="0.0000" type="priority" />
	<node id="2279008226" x="398343.3247" y="5831977.8762" z="0.0000" type="priority" />
	<node id="51464201" x="409502.9777" y="5830325.4610" z="0.0000" type="priority" />
	<node id="2279008228" x="398440.6304" y="5832235.5384" z="0.0000" type="priority" />
	<node id="51464203" x="409553.1355" y="5830356.6201" z="0.0000" type="priority" />
	<node id="1600991154" x="401353.8094" y="5831112.3668" z="0.0000" type="priority" />
	<node id="1600991155" x="401381.2249" y="5831243.5348" z="0.0000" type="priority" />
	<node id="2622033107" x="401275.3328" y="5833877.6680" z="0.0000" type="priority" />
	<node id="1600991156" x="401293.2888" y="5830954.3066" z="0.0000" type="priority" />
	<node id="1600991157" x="401374.7631" y="5831195.2070" z="0.0000" type="priority" />
	<node id="1587635293" x="399899.1827" y="5830653.9176" z="0.0000" type="priority" />
	<node id="1600991158" x="401434.4691" y="5831551.5354" z="0.0000" type="priority" />
	<node id="1600991159" x="401393.6484" y="5831394.2001" z="0.0000" type="priority" />
	<node id="1587635290" x="398111.8317" y="5831324.3246" z="0.0000" type="priority" />
	<node id="157560833" x="402630.7028" y="5833718.2338" z="0.0000" type="priority" />
	<node id="157560834" x="402661.5910" y="5833785.2805" z="0.0000" type="priority" />
	<node id="157560831" x="402546.1463" y="5833572.8573" z="0.0000" type="priority" />
	<node id="4749143260" x="399907.1179" y="5828893.4629" z="0.0000" type="priority" />
	<node id="279321104" x="406694.2690" y="5828570.1731" z="0.0000" type="priority" />
	<node id="33965054" x="405414.9942" y="5829351.2097" z="0.0000" type="priority" />
	<node id="279321105" x="406734.9848" y="5828601.2955" z="0.0000" type="priority" />
	<node id="4340141683" x="403997.4856" y="5835897.6923" z="0.0000" type="priority" />
	<node id="279321106" x="406768.3191" y="5828641.8387" z="0.0000" type="priority" />
	<node id="33965052" x="405399.9520" y="5829364.6417" z="0.0000" type="priority" />
	<node id="279321108" x="406817.5796" y="5828663.5190" z="0.0000" type="priority" />
	<node id="33965050" x="405382.6880" y="5829387.1630" z="0.0000" type="priority" />
	<node id="1339807745" x="397163.8103" y="5829514.3728" z="0.0000" type="priority" />
	<node id="2279008234" x="398492.3175" y="5832406.4016" z="0.0000" type="priority" />
	<node id="446299953" x="407128.3362" y="5829472.8469" z="0.0000" type="priority" />
	<node id="1600991160" x="401409.9996" y="5831468.5100" z="0.0000" type="priority" />
	<node id="2279008236" x="398332.1520" y="5831984.9857" z="0.0000" type="priority" />
	<node id="2281944739" x="398984.5657" y="5831833.7558" z="0.0000" type="priority" />
	<node id="1587635287" x="398828.3634" y="5831015.5674" z="0.0000" type="priority" />
	<node id="5057069841" x="402340.7746" y="5830241.2567" z="0.0000" type="priority" />
	<node id="2128613232" x="404186.7774" y="5836375.1291" z="0.0000" type="priority" />
	<node id="1493529690" x="397670.5743" y="5830502.0015" z="0.0000" type="priority" />
	<node id="318087366" x="405690.8586" y="5831968.5366" z="0.0000" type="priority" />
	<node id="2407315926" x="406407.2250" y="5829552.7092" z="0.0000" type="priority" />
	<node id="5216224659" x="398660.3545" y="5832674.2244" z="0.0000" type="priority" />
	<node id="2316363567" x="397157.2717" y="5831481.5724" z="0.0000" type="priority" />
	<node id="2548923616" x="405898.4825" y="5828476.6444" z="0.0000" type="priority" />
	<node id="983672780" x="409024.3472" y="5836098.4534" z="0.0000" type="priority" />
	<node id="157551078" x="402180.3972" y="5833564.3917" z="0.0000" type="priority" />
	<node id="2548923618" x="405521.9611" y="5828626.3354" z="0.0000" type="priority" />
	<node id="75683848" x="401357.2117" y="5834275.0069" z="0.0000" type="priority" />
	<node id="157551079" x="402194.8031" y="5833567.2294" z="0.0000" type="priority" />
	<node id="75683847" x="401419.0686" y="5834104.7793" z="0.0000" type="priority" />
	<node id="75683849" x="401385.3541" y="5834315.3186" z="0.0000" type="priority" />
	<node id="33965065" x="405754.2677" y="5829103.3553" z="0.0000" type="priority" />
	<node id="33965064" x="408611.4960" y="5829853.1374" z="0.0000" type="priority" />
	<node id="33965062" x="406407.4769" y="5829547.4749" z="0.0000" type="priority" />
	<node id="2580645101" x="400632.7882" y="5833991.8672" z="0.0000" type="priority" />
	<node id="39975026" x="403192.4695" y="5834374.2885" z="0.0000" type="priority" />
	<node id="134853560" x="400443.8519" y="5835291.7950" z="0.0000" type="priority" />
	<node id="1587635277" x="398492.7836" y="5831159.8799" z="0.0000" type="priority" />
	<node id="1587635275" x="399742.2097" y="5830688.3068" z="0.0000" type="priority" />
	<node id="2621031473" x="401631.9562" y="5834031.8250" z="0.0000" type="priority" />
	<node id="134853561" x="400455.0366" y="5835339.1798" z="0.0000" type="priority" />
	<node id="1587635272" x="398335.0314" y="5831226.9010" z="0.0000" type="priority" />
	<node id="5057069850" x="400871.3403" y="5830240.3439" z="0.0000" type="priority" />
	<node id="1587635270" x="399344.2692" y="5830805.9447" z="0.0000" type="priority" />
	<node id="5666996229" x="400094.5837" y="5833894.1535" z="0.0000" type="priority" />
	<node id="2316363558" x="397162.0802" y="5831465.5366" z="0.0000" type="priority" />
	<node id="3080951901" x="398181.4607" y="5832316.5623" z="0.0000" type="priority" />
	<node id="382428332" x="401232.2168" y="5835412.6953" z="0.0000" type="priority" />
	<node id="2316363555" x="398571.3538" y="5832056.3732" z="0.0000" type="priority" />
	<node id="2128613213" x="404189.2913" y="5836337.8600" z="0.0000" type="priority" />
	<node id="5057069844" x="400878.3276" y="5830275.5750" z="0.0000" type="priority" />
	<node id="134853567" x="400499.5209" y="5835604.1448" z="0.0000" type="priority" />
	<node id="5057069845" x="400875.6953" y="5830262.3539" z="0.0000" type="priority" />
	<node id="40446758" x="410848.7286" y="5831616.6158" z="0.0000" type="priority" />
	<node id="5057069842" x="402068.7421" y="5830355.2506" z="0.0000" type="priority" />
	<node id="536432717" x="401663.9452" y="5828779.0360" z="0.0000" type="priority" />
	<node id="5057069843" x="402112.5180" y="5830305.0800" z="0.0000" type="priority" />
	<node id="75683851" x="401416.9035" y="5834377.2149" z="0.0000" type="priority" />
	<node id="5057069848" x="400873.1770" y="5830277.0928" z="0.0000" type="priority" />
	<node id="75683850" x="401410.1945" y="5834356.3425" z="0.0000" type="priority" />
	<node id="5057069849" x="400870.4970" y="5830261.1910" z="0.0000" type="priority" />
	<node id="5057069846" x="400875.9510" y="5830248.2618" z="0.0000" type="priority" />
	<node id="75683852" x="401419.8695" y="5834399.3980" z="0.0000" type="priority" />
	<node id="5057069847" x="400878.6460" y="5830237.5585" z="0.0000" type="priority" />
	<node id="98105102" x="396300.5073" y="5830339.3144" z="0.0000" type="priority" />
	<node id="307863893" x="408317.3380" y="5835743.6814" z="0.0000" type="priority" />
	<node id="39975038" x="403087.7686" y="5834152.3936" z="0.0000" type="priority" />
	<node id="307863892" x="408378.3065" y="5835825.8621" z="0.0000" type="priority" />
	<node id="307863897" x="407969.7670" y="5835546.9493" z="0.0000" type="priority" />
	<node id="307863896" x="408229.0941" y="5835764.0465" z="0.0000" type="priority" />
	<node id="307863899" x="407976.9793" y="5835556.6491" z="0.0000" type="priority" />
	<node id="2316675399" x="397582.0621" y="5831163.1082" z="0.0000" type="priority" />
	<node id="2316675398" x="397390.1627" y="5831311.5949" z="0.0000" type="priority" />
	<node id="99280505" x="399079.1874" y="5833874.3846" z="0.0000" type="priority" />
	<node id="5057069855" x="404243.0662" y="5829834.0577" z="0.0000" type="priority" />
	<node id="5057069856" x="403474.3864" y="5830072.6457" z="0.0000" type="priority" />
	<node id="291549390" x="398280.9655" y="5832563.3153" z="0.0000" type="priority" />
	<node id="5057068542" x="401659.6488" y="5832176.1154" z="0.0000" type="priority" />
	<node id="291549392" x="398396.0313" y="5832547.8091" z="0.0000" type="priority" />
	<node id="157551080" x="402309.3418" y="5833596.8346" z="0.0000" type="priority" />
	<node id="2316675386" x="397584.1342" y="5831238.2856" z="0.0000" type="priority" />
	<node id="307863888" x="407993.3380" y="5835541.2635" z="0.0000" type="priority" />
	<node id="307863887" x="407943.1368" y="5835545.0378" z="0.0000" type="priority" />
	<node id="307863889" x="408136.5191" y="5835483.9414" z="0.0000" type="priority" />
	<node id="2316675389" x="397553.9090" y="5831183.9954" z="0.0000" type="priority" />
	<node id="291549387" x="398293.6582" y="5832578.5176" z="0.0000" type="priority" />
	<node id="2548923620" x="405767.1729" y="5828915.5432" z="0.0000" type="priority" />
	<node id="291549386" x="398350.5037" y="5832586.8465" z="0.0000" type="priority" />
	<node id="40447247" x="405685.0100" y="5828963.9061" z="0.0000" type="priority" />
	<node id="157564462" x="402669.7297" y="5834018.3626" z="0.0000" type="priority" />
	<node id="157564463" x="402814.5994" y="5833990.5258" z="0.0000" type="priority" />
	<node id="60635399" x="403207.9452" y="5834779.7715" z="0.0000" type="priority" />
	<node id="157564464" x="402924.4031" y="5833963.8700" z="0.0000" type="priority" />
	<node id="5162443288" x="401658.2345" y="5835803.7991" z="0.0000" type="priority" />
	<node id="3020964341" x="405404.3866" y="5829368.0162" z="0.0000" type="priority" />
	<node id="289031316" x="397511.8977" y="5834270.5773" z="0.0000" type="priority" />
	<node id="289031315" x="397496.6058" y="5834291.0060" z="0.0000" type="priority" />
	<node id="5162443289" x="401715.7863" y="5835777.9356" z="0.0000" type="priority" />
	<node id="73589281" x="401379.1066" y="5831531.7241" z="0.0000" type="priority" />
	<node id="289031318" x="397478.1490" y="5834230.4493" z="0.0000" type="priority" />
	<node id="2587612659" x="401521.9812" y="5833818.1237" z="0.0000" type="priority" />