<?xml version="1.0" ?>
<!-- Generated by VSimRTI -->
<routes>
	<vType id="default" length="7.5" maxSpeed="50" minGap="2.0" carFollowModel="Krauss" accel="0.80" decel="4.5" sigma="0.5" tau="1"/>
	<route id="11" edges="463220761_4585051391_4585051389_4585051391 463220761_4585051389_674001582_4585051389 463220761_4585051389_674001582_506720574 463220761_4585051389_674001582_1786731071 53836959_674001582_5051967420_674001582 53836959_674001582_5051967420_506720577 53836959_674001582_5051967420_4475426417 53836959_674001582_5051967420_4475426416 53836959_5051967420_506720591_5051967420 53836959_5051967420_506720591_506720579 53836959_5051967420_506720591_506720588 53836959_5051967420_506720591_4475426418 317809022_506720591_5052600601_506720591 317809022_5052600601_1482489827_5052600601 317809022_5052600601_1482489827_1193997018 317809022_5052600601_1482489827_4475426422 317809022_5052600601_1482489827_1314561030 317809022_5052600601_1482489827_674001492 317809022_5052600601_1482489827_673845067 317809022_5052600601_1482489827_4475426421 317809022_5052600601_1482489827_673845071 317809022_5052600601_1482489827_673845068 317809022_5052600601_1482489827_4475426420 317809022_5052600601_1482489827_673845069 317809022_5052600601_1482489827_4451153456 317809022_5052600601_1482489827_3955447738 317809022_5052600601_1482489827_4451153153 317809022_5052600601_1482489827_4475426423 317809022_5052600601_1482489827_1620505854 317809022_5052600601_1482489827_4475426419 317809022_5052600601_1482489827_1620505908 317809022_5052600601_1482489827_4475426424 317809022_5052600601_1482489827_674001485 317809022_5052600601_1482489827_4449833660 317809022_5052600601_1482489827_673845036 317809022_5052600601_1482489827_673845037 317809022_5052600601_1482489827_3955447733 317809022_5052600601_1482489827_673845035 317809022_5052600601_1482489827_673845034 317809022_5052600601_1482489827_4455832129 317809022_5052600601_1482489827_1775329590 317809022_5052600601_1482489827_673845032 317809022_5052600601_1482489827_673845048 317809022_5052600601_1482489827_4451153105 317809022_5052600601_1482489827_1305967866 317809022_5052600601_1482489827_5427474512 317809022_5052600601_1482489827_4475426482 317809022_1482489827_5052600601_1482489827" />
	<route id="12" edges="317809022_1482489827_5052600601_4475426482 317809022_1482489827_5052600601_5427474512 317809022_1482489827_5052600601_1305967866 317809022_1482489827_5052600601_4451153105 317809022_1482489827_5052600601_673845048 317809022_1482489827_5052600601_673845032 317809022_1482489827_5052600601_1775329590 317809022_1482489827_5052600601_4455832129 317809022_1482489827_5052600601_673845034 317809022_1482489827_5052600601_673845035 317809022_1482489827_5052600601_3955447733 317809022_1482489827_5052600601_673845037 317809022_1482489827_5052600601_673845036 317809022_1482489827_5052600601_4449833660 317809022_1482489827_5052600601_674001485 317809022_1482489827_5052600601_4475426424 317809022_1482489827_5052600601_1620505908 317809022_1482489827_5052600601_4475426419 317809022_1482489827_5052600601_1620505854 317809022_1482489827_5052600601_4475426423 317809022_1482489827_5052600601_4451153153 317809022_1482489827_5052600601_3955447738 317809022_1482489827_5052600601_4451153456 317809022_1482489827_5052600601_673845069 317809022_1482489827_5052600601_4475426420 317809022_1482489827_5052600601_673845068 317809022_1482489827_5052600601_673845071 317809022_1482489827_5052600601_4475426421 317809022_1482489827_5052600601_673845067 317809022_1482489827_5052600601_674001492 317809022_1482489827_5052600601_1314561030 317809022_1482489827_5052600601_4475426422 317809022_1482489827_5052600601_1193997018 317809022_5052600601_506720591_5052600601 53836959_506720591_5051967420_506720591 53836959_506720591_5051967420_4475426418 53836959_506720591_5051967420_506720588 53836959_506720591_5051967420_506720579 53836959_5051967420_674001582_5051967420 53836959_5051967420_674001582_4475426416 53836959_5051967420_674001582_4475426417 53836959_5051967420_674001582_506720577 463220761_674001582_4585051389_674001582 463220761_674001582_4585051389_1786731071 463220761_674001582_4585051389_506720574 463220761_4585051389_4585051391_4585051389" />
	<route id="13" edges="317809022_1482489827_5052600601_4475426482 317809022_1482489827_5052600601_5427474512 317809022_1482489827_5052600601_1305967866 317809022_1482489827_5052600601_4451153105 317809022_1482489827_5052600601_673845048 317809022_1482489827_5052600601_673845032 317809022_1482489827_5052600601_1775329590 317809022_1482489827_5052600601_4455832129 317809022_1482489827_5052600601_673845034 317809022_1482489827_5052600601_673845035 317809022_1482489827_5052600601_3955447733 317809022_1482489827_5052600601_673845037 317809022_1482489827_5052600601_673845036 317809022_1482489827_5052600601_4449833660 317809022_1482489827_5052600601_674001485 317809022_1482489827_5052600601_4475426424 317809022_1482489827_5052600601_1620505908 317809022_1482489827_5052600601_4475426419 317809022_1482489827_5052600601_1620505854 317809022_1482489827_5052600601_4475426423 317809022_1482489827_5052600601_4451153153 317809022_1482489827_5052600601_3955447738 317809022_1482489827_5052600601_4451153456 317809022_1482489827_5052600601_673845069 317809022_1482489827_5052600601_4475426420 317809022_1482489827_5052600601_673845068 317809022_1482489827_5052600601_673845071 317809022_1482489827_5052600601_4475426421 317809022_1482489827_5052600601_673845067 317809022_1482489827_5052600601_674001492 317809022_1482489827_5052600601_1314561030 317809022_1482489827_5052600601_4475426422 317809022_1482489827_5052600601_1193997018 317809022_5052600601_506720591_5052600601 317809022_506720591_1365538400_506720591 317809022_506720591_1365538400_1305967865 317809022_506720591_1365538400_452617138 317809022_1365538400_452617139_1365538400 317809022_1365538400_452617139_4475426415 317809022_1365538400_452617139_4475426413 317809022_452617139_698815592_452617139 317809022_452617139_698815592_4475426414 317809022_452617139_698815592_452617141 317809022_452617139_698815592_4475426412 317809022_698815592_1786731081_698815592 317809022_698815592_1786731081_4475426411 317809022_1786731081_1366644336_1786731081 317809022_1786731081_1366644336_1786731083 317809022_1786731081_1366644336_1786731085 317809022_1366644336_1365554450_1366644336 317809022_1365554450_1366644341_1365554450 317809022_1365554450_1366644341_4475426409 317809022_1366644341_4475426408_1366644341 317809022_4475426408_4475426401_4475426408 317809022_4475426408_4475426401_4475426407 317809022_4475426408_4475426401_452617148 317809022_4475426408_4475426401_4475426406 317809022_4475426408_4475426401_4475426405 317809022_4475426408_4475426401_452617150 317809022_4475426408_4475426401_4475426404 317809022_4475426408_4475426401_452617152 317809022_4475426408_4475426401_1818311525 317809022_4475426408_4475426401_4475426403 317809022_4475426408_4475426401_452617155 317809022_4475426408_4475426401_4475426402 317809022_4475426408_4475426401_4475426400 317809022_4475426401_3700395694_4475426401 317809022_3700395694_4475426399_3700395694 317809022_4475426399_698827482_4475426399 317809022_4475426399_698827482_452617165 317809022_4475426399_698827482_4475426397 317809022_4475426399_698827482_452617167 317809022_4475426399_698827482_4475426398 317809022_4475426399_698827482_452617169 317809022_4475426399_698827482_4475426396 317809022_698827482_452617173_698827482 317809022_452617173_4475423973_452617173 317809022_4475423973_4475423981_4475423973 450624182_4475423981_4475423975_4475423981 450624182_4475423981_4475423975_4475423977 450624182_4475423981_4475423975_4475423982 463800155_4475423975_4475423980_4475423975 463800155_4475423975_4475423980_4475423979 135251703_4475423980_4475423984_4475423980 135251703_4475423984_4475423988_4475423984 135251703_4475423984_4475423988_452617175 135251703_4475423984_4475423988_4475423985 135251703_4475423984_4475423988_452617177 135251703_4475423984_4475423988_1775334200 135251703_4475423984_4475423988_4475423986 135251703_4475423984_4475423988_4475423987 135251703_4475423984_4475423988_452617179 135251703_4475423988_452617181_4475423988 135251703_4475423988_452617181_4475426389 135251703_452617181_674001591_452617181 135251703_674001591_674001532_674001591 135251703_674001591_674001532_452617187 135251703_674001591_674001532_674001553 135251703_674001591_674001532_4475426394 135251703_674001591_674001532_4475426395 135251703_674001591_674001532_452617192 135251703_674001591_674001532_452617193" />
	<route id="14" edges="135251703_674001591_452617181_674001591 135251703_452617181_4475423988_452617181 135251703_452617181_4475423988_4475426389 135251703_4475423988_4475423984_4475423988 135251703_4475423988_4475423984_452617179 135251703_4475423988_4475423984_4475423987 135251703_4475423988_4475423984_4475423986 135251703_4475423988_4475423984_1775334200 135251703_4475423988_4475423984_452617177 135251703_4475423988_4475423984_4475423985 135251703_4475423988_4475423984_452617175 135251703_4475423984_4475423980_4475423984 450624181_4475423980_1365489663_4475423980 450624181_4475423980_1365489663_4475423978 450624181_4475423980_1365489663_4475423983 463800156_1365489663_4475423981_1365489663 463800156_1365489663_4475423981_4475423976 317809022_4475423981_4475423973_4475423981 317809022_4475423973_452617173_4475423973 317809022_452617173_698827482_452617173 317809022_698827482_4475426399_698827482 317809022_698827482_4475426399_4475426396 317809022_698827482_4475426399_452617169 317809022_698827482_4475426399_4475426398 317809022_698827482_4475426399_452617167 317809022_698827482_4475426399_4475426397 317809022_698827482_4475426399_452617165 317809022_4475426399_3700395694_4475426399 317809022_3700395694_4475426401_3700395694 317809022_4475426401_4475426408_4475426401 317809022_4475426401_4475426408_4475426400 317809022_4475426401_4475426408_4475426402 317809022_4475426401_4475426408_452617155 317809022_4475426401_4475426408_4475426403 317809022_4475426401_4475426408_1818311525 317809022_4475426401_4475426408_452617152 317809022_4475426401_4475426408_4475426404 317809022_4475426401_4475426408_452617150 317809022_4475426401_4475426408_4475426405 317809022_4475426401_4475426408_4475426406 317809022_4475426401_4475426408_452617148 317809022_4475426401_4475426408_4475426407 317809022_4475426408_1366644341_4475426408 317809022_1366644341_1365554450_1366644341 317809022_1366644341_1365554450_4475426409 317809022_1365554450_1366644336_1365554450 317809022_1366644336_1786731081_1366644336 317809022_1366644336_1786731081_1786731085 317809022_1366644336_1786731081_1786731083 317809022_1786731081_698815592_1786731081 317809022_1786731081_698815592_4475426411 317809022_698815592_452617139_698815592 317809022_698815592_452617139_4475426412 317809022_698815592_452617139_452617141 317809022_698815592_452617139_4475426414 317809022_452617139_1365538400_452617139 317809022_452617139_1365538400_4475426413 317809022_452617139_1365538400_4475426415 317809022_1365538400_506720591_1365538400 317809022_1365538400_506720591_452617138 317809022_1365538400_506720591_1305967865 317809022_506720591_5052600601_506720591 317809022_5052600601_1482489827_5052600601 317809022_5052600601_1482489827_1193997018 317809022_5052600601_1482489827_4475426422 317809022_5052600601_1482489827_1314561030 317809022_5052600601_1482489827_674001492 317809022_5052600601_1482489827_673845067 317809022_5052600601_1482489827_4475426421 317809022_5052600601_1482489827_673845071 317809022_5052600601_1482489827_673845068 317809022_5052600601_1482489827_4475426420 317809022_5052600601_1482489827_673845069 317809022_5052600601_1482489827_4451153456 317809022_5052600601_1482489827_3955447738 317809022_5052600601_1482489827_4451153153 317809022_5052600601_1482489827_4475426423 317809022_5052600601_1482489827_1620505854 317809022_5052600601_1482489827_4475426419 317809022_5052600601_1482489827_1620505908 317809022_5052600601_1482489827_4475426424 317809022_5052600601_1482489827_674001485 317809022_5052600601_1482489827_4449833660 317809022_5052600601_1482489827_673845036 317809022_5052600601_1482489827_673845037 317809022_5052600601_1482489827_3955447733 317809022_5052600601_1482489827_673845035 317809022_5052600601_1482489827_673845034 317809022_5052600601_1482489827_4455832129 317809022_5052600601_1482489827_1775329590 317809022_5052600601_1482489827_673845032 317809022_5052600601_1482489827_673845048 317809022_5052600601_1482489827_4451153105 317809022_5052600601_1482489827_1305967866 317809022_5052600601_1482489827_5427474512 317809022_5052600601_1482489827_4475426482 317809022_1482489827_5052600601_1482489827" />
	<route id="15" edges="135251703_674001591_452617181_674001591 135251703_452617181_4475423988_452617181 135251703_452617181_4475423988_4475426389 135251703_4475423988_4475423984_4475423988 135251703_4475423988_4475423984_452617179 135251703_4475423988_4475423984_4475423987 135251703_4475423988_4475423984_4475423986 135251703_4475423988_4475423984_1775334200 135251703_4475423988_4475423984_452617177 135251703_4475423988_4475423984_4475423985 135251703_4475423988_4475423984_452617175 135251703_4475423984_4475423980_4475423984 450624181_4475423980_1365489663_4475423980 450624181_4475423980_1365489663_4475423978 450624181_4475423980_1365489663_4475423983 463800156_1365489663_4475423981_1365489663 463800156_1365489663_4475423981_4475423976 317809022_4475423981_4475423973_4475423981 317809022_4475423973_452617173_4475423973 317809022_452617173_698827482_452617173 317809022_698827482_4475426399_698827482 317809022_698827482_4475426399_4475426396 317809022_698827482_4475426399_452617169 317809022_698827482_4475426399_4475426398 317809022_698827482_4475426399_452617167 317809022_698827482_4475426399_4475426397 317809022_698827482_4475426399_452617165 317809022_4475426399_3700395694_4475426399 317809022_3700395694_4475426401_3700395694 317809022_4475426401_4475426408_4475426401 317809022_4475426401_4475426408_4475426400 317809022_4475426401_4475426408_4475426402 317809022_4475426401_4475426408_452617155 317809022_4475426401_4475426408_4475426403 317809022_4475426401_4475426408_1818311525 317809022_4475426401_4475426408_452617152 317809022_4475426401_4475426408_4475426404 317809022_4475426401_4475426408_452617150 317809022_4475426401_4475426408_4475426405 317809022_4475426401_4475426408_4475426406 317809022_4475426401_4475426408_452617148 317809022_4475426401_4475426408_4475426407 317809022_4475426408_1366644341_4475426408 122246641_1366644341_1366644329_1366644341 122246641_1366644341_1366644329_1366644337 122246641_1366644341_1366644329_4590064919 122246637_1366644329_1366644334_1366644329 122246637_1366644334_1366644338_1366644334 122246637_1366644334_1366644338_4590064917 122246637_1366644334_1366644338_1366644339 122246637_1366644334_1366644338_1366644340 122246637_1366644334_1366644338_1366644332 122246637_1366644334_1366644338_1366644330 122246637_1366644334_1366644338_1366644326 122246637_1366644334_1366644338_4590064916 122246637_1366644334_1366644338_1366644327 122246637_1366644334_1366644338_4590064915 122246651_1366644338_1366644336_1366644338 122246651_1366644338_1366644336_4590064913 122246651_1366644338_1366644336_4475426410 317809022_1366644336_1786731081_1366644336 317809022_1366644336_1786731081_1786731085 317809022_1366644336_1786731081_1786731083 317809022_1786731081_698815592_1786731081 317809022_1786731081_698815592_4475426411 317809022_698815592_452617139_698815592 317809022_698815592_452617139_4475426412 317809022_698815592_452617139_452617141 317809022_698815592_452617139_4475426414 317809022_452617139_1365538400_452617139 317809022_452617139_1365538400_4475426413 317809022_452617139_1365538400_4475426415 317809022_1365538400_506720591_1365538400 317809022_1365538400_506720591_452617138 317809022_1365538400_506720591_1305967865 317809022_506720591_5052600601_506720591 317809022_5052600601_1482489827_5052600601 317809022_5052600601_1482489827_1193997018 317809022_5052600601_1482489827_4475426422 317809022_5052600601_1482489827_1314561030 317809022_5052600601_1482489827_674001492 317809022_5052600601_1482489827_673845067 317809022_5052600601_1482489827_4475426421 317809022_5052600601_1482489827_673845071 317809022_5052600601_1482489827_673845068 317809022_5052600601_1482489827_4475426420 317809022_5052600601_1482489827_673845069 317809022_5052600601_1482489827_4451153456 317809022_5052600601_1482489827_3955447738 317809022_5052600601_1482489827_4451153153 317809022_5052600601_1482489827_4475426423 317809022_5052600601_1482489827_1620505854 317809022_5052600601_1482489827_4475426419 317809022_5052600601_1482489827_1620505908 317809022_5052600601_1482489827_4475426424 317809022_5052600601_1482489827_674001485 317809022_5052600601_1482489827_4449833660 317809022_5052600601_1482489827_673845036 317809022_5052600601_1482489827_673845037 317809022_5052600601_1482489827_3955447733 317809022_5052600601_1482489827_673845035 317809022_5052600601_1482489827_673845034 317809022_5052600601_1482489827_4455832129 317809022_5052600601_1482489827_1775329590 317809022_5052600601_1482489827_673845032 317809022_5052600601_1482489827_673845048 317809022_5052600601_1482489827_4451153105 317809022_5052600601_1482489827_1305967866 317809022_5052600601_1482489827_5427474512 317809022_5052600601_1482489827_4475426482 317809022_1482489827_5052600601_1482489827" />
	<route id="1" edges="317809022_1482489827_5052600601_673845071 317809022_1482489827_5052600601_4475426421 317809022_1482489827_5052600601_673845067 317809022_1482489827_5052600601_674001492 317809022_1482489827_5052600601_1314561030 317809022_1482489827_5052600601_4475426422 317809022_1482489827_5052600601_1193997018 317809022_5052600601_506720591_5052600601 317809022_506720591_1365538400_506720591 317809022_506720591_1365538400_1305967865 317809022_506720591_1365538400_452617138 317809022_1365538400_452617139_1365538400 317809022_1365538400_452617139_4475426415 317809022_1365538400_452617139_4475426413 317809022_452617139_698815592_452617139 317809022_452617139_698815592_4475426414 317809022_452617139_698815592_452617141 317809022_452617139_698815592_4475426412 317809022_698815592_1786731081_698815592 317809022_698815592_1786731081_4475426411 317809022_1786731081_1366644336_1786731081 317809022_1786731081_1366644336_1786731083 317809022_1786731081_1366644336_1786731085 317809022_1366644336_1365554450_1366644336 317809022_1365554450_1366644341_1365554450 317809022_1365554450_1366644341_4475426409 317809022_1366644341_4475426408_1366644341 317809022_4475426408_4475426401_4475426408 317809022_4475426408_4475426401_4475426407 317809022_4475426408_4475426401_452617148 317809022_4475426408_4475426401_4475426406 317809022_4475426408_4475426401_4475426405 317809022_4475426408_4475426401_452617150 317809022_4475426408_4475426401_4475426404 317809022_4475426408_4475426401_452617152 317809022_4475426408_4475426401_1818311525 317809022_4475426408_4475426401_4475426403 317809022_4475426408_4475426401_452617155 317809022_4475426408_4475426401_4475426402 317809022_4475426408_4475426401_4475426400 317809022_4475426401_3700395694_4475426401 317809022_3700395694_4475426399_3700395694 317809022_4475426399_698827482_4475426399 317809022_4475426399_698827482_452617165 317809022_4475426399_698827482_4475426397 317809022_4475426399_698827482_452617167 317809022_4475426399_698827482_4475426398 317809022_4475426399_698827482_452617169 317809022_4475426399_698827482_4475426396 317809022_698827482_452617173_698827482 317809022_452617173_4475423973_452617173 317809022_4475423973_4475423981_4475423973 450624182_4475423981_4475423975_4475423981 450624182_4475423981_4475423975_4475423977 450624182_4475423981_4475423975_4475423982 463800155_4475423975_4475423980_4475423975 463800155_4475423975_4475423980_4475423979 135251703_4475423980_4475423984_4475423980 135251703_4475423984_4475423988_4475423984 135251703_4475423984_4475423988_452617175 135251703_4475423984_4475423988_4475423985 135251703_4475423984_4475423988_452617177 135251703_4475423984_4475423988_1775334200 135251703_4475423984_4475423988_4475423986 135251703_4475423984_4475423988_4475423987 135251703_4475423984_4475423988_452617179 135251703_4475423988_452617181_4475423988 135251703_4475423988_452617181_4475426389 135251703_452617181_674001591_452617181 135251703_674001591_674001532_674001591 135251703_674001591_674001532_452617187 135251703_674001591_674001532_674001553 135251703_674001591_674001532_4475426394 135251703_674001591_674001532_4475426395 135251703_674001591_674001532_452617192 135251703_674001591_674001532_452617193" />
	<route id="2" edges="317809022_1482489827_5052600601_673845071 317809022_1482489827_5052600601_4475426421 317809022_1482489827_5052600601_673845067 317809022_1482489827_5052600601_674001492 317809022_1482489827_5052600601_1314561030 317809022_1482489827_5052600601_4475426422 317809022_1482489827_5052600601_1193997018 317809022_5052600601_506720591_5052600601 317809022_506720591_1365538400_506720591 317809022_506720591_1365538400_1305967865 317809022_506720591_1365538400_452617138 317809022_1365538400_452617139_1365538400 317809022_1365538400_452617139_4475426415 317809022_1365538400_452617139_4475426413 317809022_452617139_698815592_452617139 317809022_452617139_698815592_4475426414 317809022_452617139_698815592_452617141 317809022_452617139_698815592_4475426412 317809022_698815592_1786731081_698815592 317809022_698815592_1786731081_4475426411 317809022_1786731081_1366644336_1786731081 317809022_1786731081_1366644336_1786731083 317809022_1786731081_1366644336_1786731085 317809022_1366644336_1365554450_1366644336 317809022_1365554450_1366644341_1365554450 317809022_1365554450_1366644341_4475426409 317809022_1366644341_4475426408_1366644341 317809022_4475426408_4475426401_4475426408 317809022_4475426408_4475426401_4475426407 317809022_4475426408_4475426401_452617148 317809022_4475426408_4475426401_4475426406 317809022_4475426408_4475426401_4475426405 317809022_4475426408_4475426401_452617150 317809022_4475426408_4475426401_4475426404 317809022_4475426408_4475426401_452617152 317809022_4475426408_4475426401_1818311525 317809022_4475426408_4475426401_4475426403 317809022_4475426408_4475426401_452617155 317809022_4475426408_4475426401_4475426402 317809022_4475426408_4475426401_4475426400 317809022_4475426401_3700395694_4475426401 317809022_3700395694_4475426399_3700395694 317809022_4475426399_698827482_4475426399 317809022_4475426399_698827482_452617165 317809022_4475426399_698827482_4475426397 317809022_4475426399_698827482_452617167 317809022_4475426399_698827482_4475426398 317809022_4475426399_698827482_452617169 317809022_4475426399_698827482_4475426396 317809022_698827482_452617173_698827482 317809022_452617173_4475423973_452617173 317809022_4475423973_4475423981_4475423973 450624182_4475423981_4475423975_4475423981 450624182_4475423981_4475423975_4475423977 450624182_4475423981_4475423975_4475423982 463800155_4475423975_4475423980_4475423975 463800155_4475423975_4475423980_4475423979 135251703_4475423980_4475423984_4475423980 135251703_4475423984_4475423988_4475423984 135251703_4475423984_4475423988_452617175 135251703_4475423984_4475423988_4475423985 135251703_4475423984_4475423988_452617177 135251703_4475423984_4475423988_1775334200 135251703_4475423984_4475423988_4475423986 135251703_4475423984_4475423988_4475423987 135251703_4475423984_4475423988_452617179 135251703_4475423988_452617181_4475423988 135251703_4475423988_452617181_4475426389 135251703_452617181_674001591_452617181 135251703_674001591_674001532_674001591 135251703_674001591_674001532_452617187 135251703_674001591_674001532_674001553 135251703_674001591_674001532_4475426394 135251703_674001591_674001532_4475426395 135251703_674001591_674001532_452617192 135251703_674001591_674001532_452617193" />
	<route id="3" edges="135251703_674001591_452617181_674001591 135251703_452617181_4475423988_452617181 135251703_452617181_4475423988_4475426389 135251703_4475423988_4475423984_4475423988 135251703_4475423988_4475423984_452617179 135251703_4475423988_4475423984_4475423987 135251703_4475423988_4475423984_4475423986 135251703_4475423988_4475423984_1775334200 135251703_4475423988_4475423984_452617177 135251703_4475423988_4475423984_4475423985 135251703_4475423988_4475423984_452617175 135251703_4475423984_4475423980_4475423984 450624181_4475423980_1365489663_4475423980 450624181_4475423980_1365489663_4475423978 450624181_4475423980_1365489663_4475423983 463800156_1365489663_4475423981_1365489663 463800156_1365489663_4475423981_4475423976 317809022_4475423981_4475423973_4475423981 317809022_4475423973_452617173_4475423973 317809022_452617173_698827482_452617173 317809022_698827482_4475426399_698827482 317809022_698827482_4475426399_4475426396 317809022_698827482_4475426399_452617169 317809022_698827482_4475426399_4475426398 317809022_698827482_4475426399_452617167 317809022_698827482_4475426399_4475426397 317809022_698827482_4475426399_452617165 317809022_4475426399_3700395694_4475426399 317809022_3700395694_4475426401_3700395694 317809022_4475426401_4475426408_4475426401 317809022_4475426401_4475426408_4475426400 317809022_4475426401_4475426408_4475426402 317809022_4475426401_4475426408_452617155 317809022_4475426401_4475426408_4475426403 317809022_4475426401_4475426408_1818311525 317809022_4475426401_4475426408_452617152 317809022_4475426401_4475426408_4475426404 317809022_4475426401_4475426408_452617150 317809022_4475426401_4475426408_4475426405 317809022_4475426401_4475426408_4475426406 317809022_4475426401_4475426408_452617148 317809022_4475426401_4475426408_4475426407 317809022_4475426408_1366644341_4475426408 317809022_1366644341_1365554450_1366644341 317809022_1366644341_1365554450_4475426409 317809022_1365554450_1366644336_1365554450 317809022_1366644336_1786731081_1366644336 317809022_1366644336_1786731081_1786731085 317809022_1366644336_1786731081_1786731083 317809022_1786731081_698815592_1786731081 317809022_1786731081_698815592_4475426411 317809022_698815592_452617139_698815592 317809022_698815592_452617139_4475426412 317809022_698815592_452617139_452617141 317809022_698815592_452617139_4475426414 317809022_452617139_1365538400_452617139 317809022_452617139_1365538400_4475426413 317809022_452617139_1365538400_4475426415 317809022_1365538400_506720591_1365538400 317809022_1365538400_506720591_452617138 317809022_1365538400_506720591_1305967865 317809022_506720591_5052600601_506720591 317809022_5052600601_1482489827_5052600601 317809022_5052600601_1482489827_1193997018 317809022_5052600601_1482489827_4475426422 317809022_5052600601_1482489827_1314561030 317809022_5052600601_1482489827_674001492 317809022_5052600601_1482489827_673845067 317809022_5052600601_1482489827_4475426421 317809022_5052600601_1482489827_673845071 317809022_5052600601_1482489827_673845068 317809022_5052600601_1482489827_4475426420 317809022_5052600601_1482489827_673845069 317809022_5052600601_1482489827_4451153456 317809022_5052600601_1482489827_3955447738 317809022_5052600601_1482489827_4451153153 317809022_5052600601_1482489827_4475426423 317809022_5052600601_1482489827_1620505854 317809022_5052600601_1482489827_4475426419 317809022_5052600601_1482489827_1620505908 317809022_5052600601_1482489827_4475426424 317809022_5052600601_1482489827_674001485 317809022_5052600601_1482489827_4449833660 317809022_5052600601_1482489827_673845036 317809022_5052600601_1482489827_673845037 317809022_5052600601_1482489827_3955447733 317809022_5052600601_1482489827_673845035 317809022_5052600601_1482489827_673845034 317809022_5052600601_1482489827_4455832129 317809022_5052600601_1482489827_1775329590 317809022_5052600601_1482489827_673845032 317809022_5052600601_1482489827_673845048 317809022_5052600601_1482489827_4451153105 317809022_5052600601_1482489827_1305967866 317809022_5052600601_1482489827_5427474512 317809022_5052600601_1482489827_4475426482 317809022_1482489827_5052600601_1482489827 317809022_1482489827_5052600601_4475426482 317809022_1482489827_5052600601_5427474512 317809022_1482489827_5052600601_1305967866 317809022_1482489827_5052600601_4451153105 317809022_1482489827_5052600601_673845048 317809022_1482489827_5052600601_673845032 317809022_1482489827_5052600601_1775329590 317809022_1482489827_5052600601_4455832129 317809022_1482489827_5052600601_673845034 317809022_1482489827_5052600601_673845035 317809022_1482489827_5052600601_3955447733 317809022_1482489827_5052600601_673845037 317809022_1482489827_5052600601_673845036 317809022_1482489827_5052600601_4449833660 317809022_1482489827_5052600601_674001485 317809022_1482489827_5052600601_4475426424 317809022_1482489827_5052600601_1620505908 317809022_1482489827_5052600601_4475426419 317809022_1482489827_5052600601_1620505854 317809022_1482489827_5052600601_4475426423 317809022_1482489827_5052600601_4451153153 317809022_1482489827_5052600601_3955447738 317809022_1482489827_5052600601_4451153456 317809022_1482489827_5052600601_673845069 317809022_1482489827_5052600601_4475426420 317809022_1482489827_5052600601_673845068" />