<nodes>
	<node id="4590064961" x="550462.7364" y="4601363.3304" z="0.0000" type="priority" />
	<node id="4590064962" x="550467.2091" y="4601364.0724" z="0.0000" type="priority" />
	<node id="1482489330" x="550214.5583" y="4600929.3250" z="0.0000" type="priority" />
	<node id="5052579741" x="550306.0442" y="4601118.4976" z="0.0000" type="priority" />
	<node id="5052579740" x="550304.6949" y="4601118.2661" z="0.0000" type="priority" />
	<node id="5052579501" x="550447.8872" y="4601193.9997" z="0.0000" type="priority" />
	<node id="5052579743" x="550328.6961" y="4601129.9805" z="0.0000" type="priority" />
	<node id="5052579500" x="550446.1956" y="4601196.2195" z="0.0000" type="priority" />
	<node id="5052579742" x="550332.6943" y="4601130.6191" z="0.0000" type="priority" />
	<node id="5052579503" x="550454.4054" y="4601157.5066" z="0.0000" type="priority" />
	<node id="5052579745" x="550312.0622" y="4601127.2441" z="0.0000" type="priority" />
	<node id="5052579502" x="550448.9180" y="4601190.8871" z="0.0000" type="priority" />
	<node id="5052579744" x="550326.9636" y="4601129.6909" z="0.0000" type="priority" />
	<node id="4585051389" x="550219.5135" y="4601145.5392" z="0.0000" type="priority" />
	<node id="5052579505" x="550455.9628" y="4601135.1789" z="0.0000" type="priority" />
	<node id="5052579747" x="550343.4965" y="4601109.8883" z="0.0000" type="priority" />
	<node id="5052579504" x="550456.7002" y="4601141.8124" z="0.0000" type="priority" />
	<node id="5052579746" x="550310.3047" y="4601126.9542" z="0.0000" type="priority" />
	<node id="5052579507" x="550449.7802" y="4601123.7665" z="0.0000" type="priority" />
	<node id="5052579749" x="550340.3482" y="4601109.3333" z="0.0000" type="priority" />
	<node id="5052579506" x="550453.2727" y="4601128.7538" z="0.0000" type="priority" />
	<node id="5052579748" x="550351.2840" y="4601111.2417" z="0.0000" type="priority" />
	<node id="5052579509" x="550428.1932" y="4601107.9050" z="0.0000" type="priority" />
	<node id="5052579508" x="550434.9110" y="4601111.9601" z="0.0000" type="priority" />
	<node id="4585051390" x="550219.4491" y="4601149.9909" z="0.0000" type="priority" />
	<node id="4585051391" x="550240.0432" y="4601144.4611" z="0.0000" type="priority" />
	<node id="4585051392" x="550239.9789" y="4601148.9017" z="0.0000" type="priority" />
	<node id="4585051393" x="550201.5324" y="4601150.6432" z="0.0000" type="priority" />
	<node id="1482489329" x="550196.1383" y="4600918.3605" z="0.0000" type="priority" />
	<node id="506720579" x="550144.6704" y="4601233.0617" z="0.0000" type="priority" />
	<node id="506720574" x="550190.6759" y="4601146.9369" z="0.0000" type="priority" />
	<node id="4594138656" x="550274.1198" y="4601142.7671" z="0.0000" type="priority" />
	<node id="506720577" x="550150.6728" y="4601209.3549" z="0.0000" type="priority" />
	<node id="4590064972" x="550458.9674" y="4601385.9201" z="0.0000" type="priority" />
	<node id="4451153456" x="549955.3894" y="4601184.5377" z="0.0000" type="priority" />
	<node id="5052579730" x="550297.4932" y="4601115.4068" z="0.0000" type="priority" />
	<node id="5052579732" x="550278.5224" y="4601112.9650" z="0.0000" type="priority" />
	<node id="5052579731" x="550280.2929" y="4601112.5888" z="0.0000" type="priority" />
	<node id="5052579734" x="550278.2318" y="4601115.1613" z="0.0000" type="priority" />
	<node id="5052579733" x="550277.7897" y="4601113.9924" z="0.0000" type="priority" />
	<node id="5052579736" x="550297.2695" y="4601118.7805" z="0.0000" type="priority" />
	<node id="5052579735" x="550279.8439" y="4601115.9830" z="0.0000" type="priority" />
	<node id="5052579738" x="550299.5229" y="4601117.3195" z="0.0000" type="priority" />
	<node id="5052579737" x="550298.8154" y="4601118.3360" z="0.0000" type="priority" />
	<node id="5052579739" x="550302.4211" y="4601117.8616" z="0.0000" type="priority" />
	<node id="4590064967" x="550371.5719" y="4601348.6140" z="0.0000" type="priority" />
	<node id="4590064965" x="550452.9712" y="4601357.4442" z="0.0000" type="priority" />
	<node id="4590064966" x="550372.5181" y="4601343.2802" z="0.0000" type="priority" />
	<node id="4590064963" x="550463.4401" y="4601386.6621" z="0.0000" type="priority" />
	<node id="4590064964" x="550452.0250" y="4601362.7780" z="0.0000" type="priority" />
	<node id="5052579761" x="550310.5107" y="4601107.0153" z="0.0000" type="priority" />
	<node id="5052579760" x="550309.2135" y="4601114.8447" z="0.0000" type="priority" />
	<node id="5052579763" x="550273.7918" y="4601097.7657" z="0.0000" type="priority" />
	<node id="5052579520" x="550356.3102" y="4601056.7073" z="0.0000" type="priority" />
	<node id="5052579762" x="550310.9805" y="4601104.2318" z="0.0000" type="priority" />
	<node id="5052579767" x="550270.6679" y="4601097.2998" z="0.0000" type="priority" />
	<node id="5052579766" x="550272.2924" y="4601097.5443" z="0.0000" type="priority" />
	<node id="5052579769" x="550253.4139" y="4601092.6051" z="0.0000" type="priority" />
	<node id="5052579768" x="550253.4348" y="4601094.3817" z="0.0000" type="priority" />
	<node id="4604179664" x="550401.2846" y="4601212.5479" z="0.0000" type="priority" />
	<node id="4604179661" x="550319.2641" y="4601323.3894" z="0.0000" type="priority" />
	<node id="1620505854" x="549989.1184" y="4601073.1014" z="0.0000" type="priority" />
	<node id="506720591" x="550123.1026" y="4601285.0828" z="0.0000" type="priority" />
	<node id="1775334200" x="550457.3733" y="4601127.8722" z="0.0000" type="priority" />
	<node id="4604179669" x="550420.1808" y="4601220.8517" z="0.0000" type="priority" />
	<node id="4604179667" x="550508.2884" y="4601255.4988" z="0.0000" type="priority" />
	<node id="4604179668" x="550416.1004" y="4601245.0492" z="0.0000" type="priority" />
	<node id="4604179665" x="550406.5683" y="4601220.1458" z="0.0000" type="priority" />
	<node id="4604179666" x="550511.4538" y="4601234.5814" z="0.0000" type="priority" />
	<node id="5052579750" x="550305.4607" y="4601122.0352" z="0.0000" type="priority" />
	<node id="5052579510" x="550421.4461" y="4601105.6373" z="0.0000" type="priority" />
	<node id="5052579752" x="550305.8108" y="4601101.7642" z="0.0000" type="priority" />
	<node id="5052579751" x="550306.7146" y="4601114.4387" z="0.0000" type="priority" />
	<node id="5052579754" x="550284.6723" y="4601098.0527" z="0.0000" type="priority" />
	<node id="5052579511" x="550399.4428" y="4601101.5751" z="0.0000" type="priority" />
	<node id="5052579753" x="550305.5417" y="4601103.2834" z="0.0000" type="priority" />
	<node id="5052579756" x="550307.1063" y="4601126.4101" z="0.0000" type="priority" />
	<node id="5052579755" x="550284.4695" y="4601099.6278" z="0.0000" type="priority" />
	<node id="5052579516" x="550349.2291" y="4601081.9275" z="0.0000" type="priority" />
	<node id="5052579758" x="550309.8836" y="4601122.7656" z="0.0000" type="priority" />
	<node id="5052579515" x="550435.8116" y="4601110.7785" z="0.0000" type="priority" />
	<node id="5052579757" x="550307.7680" y="4601122.4177" z="0.0000" type="priority" />
	<node id="5052579518" x="550355.5367" y="4601063.5634" z="0.0000" type="priority" />
	<node id="5052579517" x="550352.4300" y="4601063.0309" z="0.0000" type="priority" />
	<node id="5052579759" x="550311.1459" y="4601115.1691" z="0.0000" type="priority" />
	<node id="5052579519" x="550356.2319" y="4601059.5491" z="0.0000" type="priority" />
	<node id="4604179674" x="550402.5820" y="4601197.5462" z="0.0000" type="priority" />
	<node id="4604179672" x="550403.5013" y="4601215.1281" z="0.0000" type="priority" />
	<node id="4604179673" x="550388.4927" y="4601280.4732" z="0.0000" type="priority" />
	<node id="4604179670" x="550419.5865" y="4601218.7825" z="0.0000" type="priority" />
	<node id="4604179671" x="550418.2510" y="4601217.7739" z="0.0000" type="priority" />
	<node id="506720588" x="550124.0546" y="4601277.6951" z="0.0000" type="priority" />
	<node id="5052579781" x="550258.4320" y="4601027.1678" z="0.0000" type="priority" />
	<node id="5052579780" x="550208.2821" y="4601018.5799" z="0.0000" type="priority" />
	<node id="5052579783" x="550259.1233" y="4600992.6434" z="0.0000" type="priority" />
	<node id="5052579782" x="550263.2790" y="4600998.2126" z="0.0000" type="priority" />
	<node id="5052579784" x="550221.8189" y="4600985.9436" z="0.0000" type="priority" />
	<node id="5052579787" x="550279.6641" y="4601029.4588" z="0.0000" type="priority" />
	<node id="5052594939" x="550537.8537" y="4601178.8648" z="0.0000" type="priority" />
	<node id="5052594942" x="550542.9521" y="4601185.5288" z="0.0000" type="priority" />
	<node id="5052594941" x="550542.3557" y="4601182.5824" z="0.0000" type="priority" />
	<node id="5052594940" x="550540.4221" y="4601180.0597" z="0.0000" type="priority" />
	<node id="4594138611" x="550414.7504" y="4601244.9287" z="0.0000" type="priority" />
	<node id="5052579770" x="550252.4275" y="4601078.6089" z="0.0000" type="priority" />
	<node id="4594138616" x="550427.7565" y="4601210.7459" z="0.0000" type="priority" />
	<node id="4594138615" x="550400.4080" y="4601210.3101" z="0.0000" type="priority" />
	<node id="5052579774" x="550243.2456" y="4601073.9150" z="0.0000" type="priority" />
	<node id="5052579775" x="550250.0193" y="4601071.1755" z="0.0000" type="priority" />
	<node id="4588661695" x="550366.7759" y="4601239.0972" z="0.0000" type="priority" />
	<node id="5052579778" x="550267.5895" y="4601070.0213" z="0.0000" type="priority" />
	<node id="5052594946" x="550538.5133" y="4601244.1086" z="0.0000" type="priority" />
	<node id="5052594945" x="550537.9276" y="4601240.8181" z="0.0000" type="priority" />
	<node id="4588661693" x="550363.9691" y="4601238.6112" z="0.0000" type="priority" />
	<node id="5052594944" x="550537.3273" y="4601230.1109" z="0.0000" type="priority" />
	<node id="4588661694" x="550361.2930" y="4601234.9397" z="0.0000" type="priority" />
	<node id="5052579779" x="550258.6492" y="4601025.9147" z="0.0000" type="priority" />
	<node id="5052594943" x="550537.7464" y="4601217.9232" z="0.0000" type="priority" />
	<node id="5052594949" x="550545.9016" y="4601248.8458" z="0.0000" type="priority" />
	<node id="5052594948" x="550543.7936" y="4601248.5978" z="0.0000" type="priority" />
	<node id="5052594947" x="550540.4525" y="4601247.0200" z="0.0000" type="priority" />
	<node id="5052594953" x="550555.9183" y="4601242.6653" z="0.0000" type="priority" />
	<node id="5052594952" x="550554.4348" y="4601246.1078" z="0.0000" type="priority" />
	<node id="5052594951" x="550552.0204" y="4601247.9339" z="0.0000" type="priority" />
	<node id="5052594950" x="550550.2836" y="4601248.2659" z="0.0000" type="priority" />
	<node id="4594138624" x="550155.7678" y="4601220.1266" z="0.0000" type="priority" />
	<node id="4590064983" x="550318.6828" y="4601317.0680" z="0.0000" type="priority" />
	<node id="4590064984" x="550314.4142" y="4601320.5355" z="0.0000" type="priority" />
	<node id="4590064981" x="550314.3618" y="4601323.2552" z="0.0000" type="priority" />
	<node id="4590064982" x="550317.3631" y="4601322.1549" z="0.0000" type="priority" />
	<node id="4590064980" x="550316.0076" y="4601324.0106" z="0.0000" type="priority" />
	<node id="4588661684" x="550356.6511" y="4601232.1427" z="0.0000" type="priority" />
	<node id="4588661685" x="550355.5600" y="4601231.9574" z="0.0000" type="priority" />
	<node id="4590443998" x="550242.5883" y="4601119.1204" z="0.0000" type="priority" />
	<node id="4588661682" x="550358.6251" y="4601232.4785" z="0.0000" type="priority" />
	<node id="4590443999" x="550244.7871" y="4601119.5021" z="0.0000" type="priority" />
	<node id="4588661683" x="550357.6423" y="4601232.3051" z="0.0000" type="priority" />
	<node id="4588661688" x="550368.6802" y="4601235.0913" z="0.0000" type="priority" />
	<node id="4588661689" x="550367.9671" y="4601239.2831" z="0.0000" type="priority" />
	<node id="4590443994" x="550204.3535" y="4601112.0034" z="0.0000" type="priority" />
	<node id="4588661686" x="550352.7365" y="4601231.4825" z="0.0000" type="priority" />
	<node id="4590443995" x="550202.5627" y="4601109.3152" z="0.0000" type="priority" />
	<node id="4590443996" x="550202.1630" y="4601111.6218" z="0.0000" type="priority" />
	<node id="4588661690" x="550355.7347" y="4601230.8373" z="0.0000" type="priority" />
	<node id="4590064978" x="550318.1873" y="4601319.9623" z="0.0000" type="priority" />
	<node id="4590064979" x="550314.9566" y="4601318.0856" z="0.0000" type="priority" />
	<node id="5052579792" x="550280.1006" y="4601050.5458" z="0.0000" type="priority" />
	<node id="4588661679" x="550361.5903" y="4601232.9766" z="0.0000" type="priority" />
	<node id="5052579794" x="550348.9683" y="4601083.4467" z="0.0000" type="priority" />
	<node id="5052579793" x="550276.5857" y="4601071.4498" z="0.0000" type="priority" />
	<node id="5052594929" x="550251.1370" y="4601129.6943" z="0.0000" type="priority" />
	<node id="5052579796" x="550431.7604" y="4601181.9958" z="0.0000" type="priority" />
	<node id="5052579795" x="550438.2400" y="4601183.1515" z="0.0000" type="priority" />
	<node id="5052579798" x="550425.5877" y="4601184.6505" z="0.0000" type="priority" />
	<node id="5052579797" x="550427.4475" y="4601182.2432" z="0.0000" type="priority" />
	<node id="5052579799" x="550422.9410" y="4601189.8836" z="0.0000" type="priority" />
	<node id="4588661677" x="550397.5441" y="4601196.5339" z="0.0000" type="priority" />
	<node id="4588661678" x="550396.7526" y="4601201.1915" z="0.0000" type="priority" />
	<node id="1314561030" x="550021.9442" y="4601244.2989" z="0.0000" type="priority" />
	<node id="4588661675" x="550356.5371" y="4601190.0185" z="0.0000" type="priority" />
	<node id="4588661676" x="550355.7865" y="4601194.8095" z="0.0000" type="priority" />
	<node id="4588661680" x="550360.5991" y="4601232.8143" z="0.0000" type="priority" />
	<node id="5052594931" x="550220.8944" y="4600933.1663" z="0.0000" type="priority" />
	<node id="4588661681" x="550359.6163" y="4601232.6409" z="0.0000" type="priority" />
	<node id="5052594930" x="550199.2152" y="4601120.5833" z="0.0000" type="priority" />
	<node id="4590064987" x="550370.8471" y="4601323.4836" z="0.0000" type="priority" />
	<node id="4590064988" x="550371.6667" y="4601323.1341" z="0.0000" type="priority" />
	<node id="4590064985" x="550316.6478" y="4601315.9324" z="0.0000" type="priority" />
	<node id="4590064986" x="550372.2139" y="4601322.4051" z="0.0000" type="priority" />
	<node id="4475426470" x="550068.9670" y="4601142.3592" z="0.0000" type="priority" />
	<node id="4475426471" x="550052.4385" y="4601116.0643" z="0.0000" type="priority" />
	<node id="1981943501" x="550253.6505" y="4601255.8712" z="0.0000" type="priority" />
	<node id="4588661662" x="550294.0637" y="4601179.0010" z="0.0000" type="priority" />
	<node id="5052594979" x="550464.9970" y="4601196.6177" z="0.0000" type="priority" />
	<node id="1981943500" x="550253.7018" y="4601255.6828" z="0.0000" type="priority" />
	<node id="5052594978" x="550449.0156" y="4601193.6190" z="0.0000" type="priority" />
	<node id="4588661660" x="550301.9694" y="4601176.5693" z="0.0000" type="priority" />
	<node id="5052594977" x="550448.0747" y="4601193.4237" z="0.0000" type="priority" />
	<node id="4588661661" x="550306.1365" y="4601151.8284" z="0.0000" type="priority" />
	<node id="5052594976" x="550439.4724" y="4601106.0189" z="0.0000" type="priority" />
	<node id="4475426239" x="550218.8021" y="4600931.8416" z="0.0000" type="priority" />
	<node id="5052594982" x="550459.2721" y="4601194.8678" z="0.0000" type="priority" />
	<node id="5052594981" x="550459.0744" y="4601195.7102" z="0.0000" type="priority" />
	<node id="5052594980" x="550459.9237" y="4601195.8938" z="0.0000" type="priority" />
	<node id="5052594986" x="550464.0174" y="4601150.7791" z="0.0000" type="priority" />
	<node id="5052594985" x="550463.8048" y="4601169.2191" z="0.0000" type="priority" />
	<node id="5052594984" x="550461.5921" y="4601166.0504" z="0.0000" type="priority" />
	<node id="5052594983" x="550464.2737" y="4601166.5688" z="0.0000" type="priority" />
	<node id="4486179624" x="550217.5749" y="4601266.8776" z="0.0000" type="priority" />
	<node id="4588661659" x="550305.7413" y="4601254.9692" z="0.0000" type="priority" />
	<node id="4486179623" x="550174.3897" y="4601252.2764" z="0.0000" type="priority" />
	<node id="4475426463" x="550167.9515" y="4601149.4210" z="0.0000" type="priority" />
	<node id="4486179626" x="550243.2794" y="4601229.2191" z="0.0000" type="priority" />
	<node id="4486179625" x="550236.3572" y="4601270.0064" z="0.0000" type="priority" />
	<node id="1981943512" x="550251.2660" y="4601268.9557" z="0.0000" type="priority" />
	<node id="4475426466" x="550089.7032" y="4601152.3626" z="0.0000" type="priority" />
	<node id="1981943511" x="550252.7342" y="4601268.8660" z="0.0000" type="priority" />
	<node id="4475426467" x="550081.5948" y="4601151.5845" z="0.0000" type="priority" />
	<node id="5052594989" x="550464.3056" y="4601133.4499" z="0.0000" type="priority" />
	<node id="4475426464" x="550157.2791" y="4601148.0144" z="0.0000" type="priority" />
	<node id="5052594988" x="550464.9306" y="4601140.6488" z="0.0000" type="priority" />
	<node id="4475426465" x="550116.9511" y="4601149.3213" z="0.0000" type="priority" />
	<node id="5052594987" x="550465.0109" y="4601144.6574" z="0.0000" type="priority" />
	<node id="4475426468" x="550076.1872" y="4601149.7594" z="0.0000" type="priority" />
	<node id="4475426469" x="550073.4577" y="4601147.7419" z="0.0000" type="priority" />
	<node id="1981943509" x="550251.2601" y="4601268.6115" z="0.0000" type="priority" />
	<node id="5052594993" x="550294.1759" y="4600993.3877" z="0.0000" type="priority" />
	<node id="1981943508" x="550250.0025" y="4601268.3807" z="0.0000" type="priority" />
	<node id="5052594992" x="550458.2522" y="4601120.2619" z="0.0000" type="priority" />
	<node id="5052594991" x="550461.8462" y="4601125.0279" z="0.0000" type="priority" />
	<node id="1193997018" x="550067.1897" y="4601262.4664" z="0.0000" type="priority" />
	<node id="5052594990" x="550462.3928" y="4601126.7638" z="0.0000" type="priority" />
	<node id="1981943505" x="550252.1262" y="4601263.9877" z="0.0000" type="priority" />
	<node id="4594084788" x="550420.4589" y="4601190.6545" z="0.0000" type="priority" />
	<node id="5052594997" x="550243.3543" y="4600977.0452" z="0.0000" type="priority" />
	<node id="1981943504" x="550252.3768" y="4601262.7238" z="0.0000" type="priority" />
	<node id="4594084787" x="550423.0033" y="4601186.9307" z="0.0000" type="priority" />
	<node id="5052594996" x="550272.0106" y="4600981.4198" z="0.0000" type="priority" />
	<node id="1981943503" x="550252.7232" y="4601260.8831" z="0.0000" type="priority" />
	<node id="4594084786" x="550424.1714" y="4601179.6999" z="0.0000" type="priority" />
	<node id="5052594995" x="550276.0797" y="4600982.6695" z="0.0000" type="priority" />
	<node id="1981943502" x="550253.5386" y="4601256.3701" z="0.0000" type="priority" />
	<node id="4594084785" x="550414.6454" y="4601190.8358" z="0.0000" type="priority" />
	<node id="5052594994" x="550286.7769" y="4600987.7292" z="0.0000" type="priority" />
	<node id="4486179612" x="550213.3735" y="4601222.4266" z="0.0000" type="priority" />
	<node id="4486179611" x="550185.9136" y="4601220.0369" z="0.0000" type="priority" />
	<node id="4486179610" x="550219.0755" y="4601280.0892" z="0.0000" type="priority" />
	<node id="4475426451" x="550159.9458" y="4601062.0763" z="0.0000" type="priority" />
	<node id="4475426452" x="550145.7430" y="4601101.7803" z="0.0000" type="priority" />
	<node id="4486179616" x="550176.3361" y="4601281.7120" z="0.0000" type="priority" />
	<node id="4486179615" x="550213.1116" y="4601224.1124" z="0.0000" type="priority" />
	<node id="4475426450" x="550171.3077" y="4601100.9814" z="0.0000" type="priority" />
	<node id="4486179614" x="550213.6706" y="4601220.4857" z="0.0000" type="priority" />
	<node id="5052594957" x="550515.6242" y="4601159.5456" z="0.0000" type="priority" />
	<node id="4588661883" x="550270.8396" y="4601158.7209" z="0.0000" type="priority" />
	<node id="5052594956" x="550522.2889" y="4601158.0935" z="0.0000" type="priority" />
	<node id="4475426453" x="550147.9298" y="4601040.4312" z="0.0000" type="priority" />
	<node id="5052594955" x="550546.3198" y="4601176.2040" z="0.0000" type="priority" />
	<node id="4588661881" x="550266.8001" y="4601161.6016" z="0.0000" type="priority" />
	<node id="5052594954" x="550555.9327" y="4601240.6114" z="0.0000" type="priority" />
	<node id="4590239399" x="550539.9390" y="4601271.4645" z="0.0000" type="priority" />
	<node id="5052594959" x="550502.2330" y="4601151.0470" z="0.0000" type="priority" />
	<node id="5052594958" x="550505.7801" y="4601151.8157" z="0.0000" type="priority" />
	<node id="4594085400" x="550417.6950" y="4601186.4272" z="0.0000" type="priority" />
	<node id="5052594960" x="550484.8794" y="4601138.0018" z="0.0000" type="priority" />
	<node id="4594085404" x="550372.6696" y="4601179.7614" z="0.0000" type="priority" />
	<node id="5052594964" x="550366.9945" y="4601039.7395" z="0.0000" type="priority" />
	<node id="4594085403" x="550382.2653" y="4601181.3052" z="0.0000" type="priority" />
	<node id="5052594963" x="550471.3905" y="4601119.6323" z="0.0000" type="priority" />
	<node id="4594085402" x="550381.6461" y="4601185.1868" z="0.0000" type="priority" />
	<node id="5052594962" x="550482.8438" y="4601129.7938" z="0.0000" type="priority" />
	<node id="4594085401" x="550417.4796" y="4601185.0268" z="0.0000" type="priority" />
	<node id="5052594961" x="550484.3460" y="4601134.3786" z="0.0000" type="priority" />
	<node id="4594085408" x="550398.9822" y="4601184.0646" z="0.0000" type="priority" />
	<node id="4594085407" x="550360.0979" y="4601185.2359" z="0.0000" type="priority" />
	<node id="4594085406" x="550360.8218" y="4601180.7000" z="0.0000" type="priority" />
	<node id="4594085405" x="550372.2250" y="4601182.5229" z="0.0000" type="priority" />
	<node id="4594085409" x="550393.0022" y="4601183.0235" z="0.0000" type="priority" />
	<node id="4486179602" x="550243.9204" y="4601225.7929" z="0.0000" type="priority" />
	<node id="4486179601" x="550214.2256" y="4601217.4253" z="0.0000" type="priority" />
	<node id="4486179600" x="550168.9978" y="4601209.9155" z="0.0000" type="priority" />
	<node id="4588661877" x="550281.8340" y="4601156.9990" z="0.0000" type="priority" />
	<node id="4588661878" x="550278.9269" y="4601152.9595" z="0.0000" type="priority" />
	<node id="4486179606" x="550235.3130" y="4601276.2388" z="0.0000" type="priority" />
	<node id="4486179605" x="550217.0427" y="4601221.2198" z="0.0000" type="priority" />
	<node id="4486179604" x="550217.5906" y="4601217.9928" z="0.0000" type="priority" />
	<node id="4486179603" x="550244.4682" y="4601222.5769" z="0.0000" type="priority" />
	<node id="5052594968" x="550226.8072" y="4600935.5058" z="0.0000" type="priority" />
	<node id="4486179609" x="550234.2344" y="4601282.6264" z="0.0000" type="priority" />
	<node id="5052594967" x="550231.0148" y="4600936.0459" z="0.0000" type="priority" />
	<node id="5052594966" x="550238.6246" y="4600941.3838" z="0.0000" type="priority" />
	<node id="4486179607" x="550221.4063" y="4601267.5150" z="0.0000" type="priority" />
	<node id="5052594965" x="550295.3032" y="4600984.8133" z="0.0000" type="priority" />
	<node id="4475426448" x="550181.8746" y="4601070.8669" z="0.0000" type="priority" />
	<node id="4590239168" x="550418.5210" y="4601222.0947" z="0.0000" type="priority" />
	<node id="4588661875" x="550271.9720" y="4601151.7896" z="0.0000" type="priority" />
	<node id="4475426449" x="550155.9123" y="4601043.7399" z="0.0000" type="priority" />
	<node id="4590239167" x="550389.2840" y="4601275.8379" z="0.0000" type="priority" />
	<node id="4588661876" x="550274.8791" y="4601155.8402" z="0.0000" type="priority" />
	<node id="4590239166" x="550401.3559" y="4601204.7432" z="0.0000" type="priority" />
	<node id="4588661874" x="550276.0115" y="4601148.9089" z="0.0000" type="priority" />
	<node id="5052594969" x="550220.2406" y="4600939.6235" z="0.0000" type="priority" />
	<node id="5052594971" x="550471.0151" y="4601123.2269" z="0.0000" type="priority" />
	<node id="4594085410" x="550392.4746" y="4601186.9168" z="0.0000" type="priority" />
	<node id="5052594970" x="550474.5863" y="4601122.9189" z="0.0000" type="priority" />
	<node id="5052594975" x="550440.0194" y="4601105.3121" z="0.0000" type="priority" />
	<node id="5052594974" x="550443.7920" y="4601108.4029" z="0.0000" type="priority" />
	<node id="5051967408" x="550155.2496" y="4601280.1661" z="0.0000" type="priority" />
	<node id="4594085413" x="550363.6758" y="4601191.1342" z="0.0000" type="priority" />
	<node id="5052594973" x="550445.4828" y="4601106.3052" z="0.0000" type="priority" />
	<node id="5051967407" x="550307.6982" y="4601305.4889" z="0.0000" type="priority" />
	<node id="4594085412" x="550364.4793" y="4601185.9327" z="0.0000" type="priority" />
	<node id="5052594972" x="550466.3162" y="4601122.6055" z="0.0000" type="priority" />
	<node id="5051967406" x="550303.5653" y="4601315.7855" z="0.0000" type="priority" />
	<node id="5051967405" x="550307.0026" y="4601309.5698" z="0.0000" type="priority" />
	<node id="5051967404" x="550257.1154" y="4601297.0751" z="0.0000" type="priority" />
	<node id="5051967403" x="550257.8632" y="4601292.6837" z="0.0000" type="priority" />
	<node id="5051967402" x="550258.8891" y="4601286.6732" z="0.0000" type="priority" />
	<node id="5051967401" x="550281.8437" y="4601290.5640" z="0.0000" type="priority" />
	<node id="5051967400" x="550280.8265" y="4601296.5190" z="0.0000" type="priority" />
	<node id="4590066303" x="550321.2215" y="4601298.6442" z="0.0000" type="priority" />
	<node id="4590066304" x="550318.7953" y="4601300.9699" z="0.0000" type="priority" />
	<node id="4590066301" x="550374.2587" y="4601310.2176" z="0.0000" type="priority" />
	<node id="4590066302" x="550372.7697" y="4601307.3094" z="0.0000" type="priority" />
	<node id="4590066300" x="550372.4453" y="4601321.5074" z="0.0000" type="priority" />
	<node id="1366647011" x="550180.9464" y="4601101.1595" z="0.0000" type="priority" />
	<node id="4590239577" x="550517.1968" y="4601248.0004" z="0.0000" type="priority" />
	<node id="4590239576" x="550520.5310" y="4601226.7955" z="0.0000" type="priority" />
	<node id="1305967865" x="550132.2650" y="4601287.7557" z="0.0000" type="priority" />
	<node id="4590239573" x="550429.8804" y="4601211.1049" z="0.0000" type="priority" />
	<node id="1305967866" x="550082.3073" y="4601003.5690" z="0.0000" type="priority" />
	<node id="5051967419" x="550186.2102" y="4601218.1515" z="0.0000" type="priority" />
	<node id="5051967418" x="550189.2112" y="4601165.6569" z="0.0000" type="priority" />
	<node id="5051967417" x="550193.1229" y="4601166.7500" z="0.0000" type="priority" />
	<node id="5051967416" x="550164.6455" y="4601214.6038" z="0.0000" type="priority" />
	<node id="5051967415" x="550168.4199" y="4601207.8797" z="0.0000" type="priority" />
	<node id="5051967414" x="550134.2713" y="4601271.4710" z="0.0000" type="priority" />
	<node id="5051967413" x="550133.6185" y="4601276.5959" z="0.0000" type="priority" />
	<node id="1818311525" x="550532.3001" y="4601345.2213" z="0.0000" type="priority" />
	<node id="5051967412" x="550234.7433" y="4601293.3551" z="0.0000" type="priority" />
	<node id="1366647009" x="550166.2966" y="4601103.2891" z="0.0000" type="priority" />
	<node id="5051967411" x="550176.0477" y="4601283.5974" z="0.0000" type="priority" />
	<node id="5051967410" x="550159.5761" y="4601224.0946" z="0.0000" type="priority" />
	<node id="5051967420" x="550145.4127" y="4601230.6576" z="0.0000" type="priority" />
	<node id="4588661857" x="550285.8736" y="4601154.1072" z="0.0000" type="priority" />
	<node id="4588661855" x="550289.9131" y="4601151.2265" z="0.0000" type="priority" />
	<node id="4588661854" x="550292.8201" y="4601155.2771" z="0.0000" type="priority" />
	<node id="4588661851" x="550296.8681" y="4601152.3854" z="0.0000" type="priority" />
	<node id="3700395694" x="550535.0318" y="4601256.5858" z="0.0000" type="priority" />
	<node id="3700395695" x="550562.6914" y="4601254.2596" z="0.0000" type="priority" />
	<node id="4590066305" x="550316.7624" y="4601312.6579" z="0.0000" type="priority" />
	<node id="4588661847" x="550296.3694" y="4601177.2185" z="0.0000" type="priority" />
	<node id="5052600605" x="550300.9081" y="4601321.3293" z="0.0000" type="priority" />
	<node id="4588661844" x="550267.6801" y="4601160.9749" z="0.0000" type="priority" />
	<node id="4486179654" x="550217.1832" y="4601269.2398" z="0.0000" type="priority" />
	<node id="5052600604" x="550241.8731" y="4601282.5797" z="0.0000" type="priority" />
	<node id="4588661845" x="550300.4089" y="4601174.3378" z="0.0000" type="priority" />
	<node id="5052600603" x="550257.8593" y="4601286.0665" z="0.0000" type="priority" />
	<node id="5052600602" x="550283.1055" y="4601290.1842" z="0.0000" type="priority" />
	<node id="5052600601" x="550115.8266" y="4601282.1455" z="0.0000" type="priority" />
	<node id="4588661848" x="550303.8147" y="4601153.5442" z="0.0000" type="priority" />
	<node id="4588661849" x="550300.9076" y="4601149.5047" z="0.0000" type="priority" />
	<node id="4590443910" x="550188.8870" y="4601108.0763" z="0.0000" type="priority" />
	<node id="4590443911" x="550186.0953" y="4601106.6135" z="0.0000" type="priority" />
	<node id="5052594999" x="550213.2551" y="4600970.3180" z="0.0000" type="priority" />
	<node id="5052594998" x="550217.9931" y="4600972.5161" z="0.0000" type="priority" />
	<node id="4588661842" x="550263.9854" y="4601157.4628" z="0.0000" type="priority" />
	<node id="4588661843" x="550269.7753" y="4601159.4795" z="0.0000" type="priority" />
	<node id="4590239353" x="550477.6565" y="4601393.9562" z="0.0000" type="priority" />