<connections>
	<connection from="517755684_5051968238_5051968237_5051968238" to="517755684_5051968237_5051968238_5051968237" />
	<connection from="517755684_5051968238_5051968237_5051968238" to="517755685_5051968237_5051968277_5051968237" />
	<connection from="187525362_1981943512_1981943518_1981943512" to="187525362_1981943518_1981943528_1981943518" />
	<connection from="187525362_1981943512_1981943518_1981943512" to="187525362_1981943518_1981943512_1981943518" />
	<connection from="187525362_1981943512_1981943518_1981943512" to="187525376_1981943518_5051968286_1981943518" />
	<connection from="187525362_1981943512_1981943518_1981943512" to="187525376_1981943518_1981943277_1981943518" />
	<connection from="517755676_5051968226_5051968241_5051968226" to="517755681_5051968241_5051968242_5051968241" />
	<connection from="517755676_5051968226_5051968241_5051968226" to="517755676_5051968241_5052579410_5051968241" />
	<connection from="517755676_5051968226_5051968241_5051968226" to="517755676_5051968241_5051968226_5051968241" />
	<connection from="463800162_5051967293_4590239639_5051967293" to="463800162_5051967293_4590239639_4590239640" />
	<connection from="463800162_5051967293_4590239639_4590239640" to="463800162_4590239639_698818674_4590239639" />
	<connection from="463800162_5051967293_4590239639_4590239640" to="517755685_4590239639_5051968244_4590239639" />
	<connection from="463800162_5051967293_4590239639_4590239640" to="463800162_4590239639_5051967293_4590239639" />
	<connection from="135251703_674001591_674001532_674001591" to="135251703_674001591_674001532_452617187" />
	<connection from="135251703_674001591_674001532_452617187" to="135251703_674001591_674001532_674001553" />
	<connection from="135251703_674001591_674001532_674001553" to="135251703_674001591_674001532_4475426394" />
	<connection from="135251703_674001591_674001532_4475426394" to="135251703_674001591_674001532_4475426395" />
	<connection from="135251703_674001591_674001532_4475426395" to="135251703_674001591_674001532_452617192" />
	<connection from="135251703_674001591_674001532_452617192" to="135251703_674001591_674001532_452617193" />
	<connection from="135251703_674001591_674001532_452617193" to="135251703_674001532_674001591_674001532" />
	<connection from="517830719_5052579483_5052579484_5052579483" to="517830719_5052579484_5052579483_5052579484" />
	<connection from="517830719_5052579483_5052579484_5052579483" to="517830720_5052579484_5052579486_5052579484" />
	<connection from="517830719_5052579483_5052579484_5052579483" to="517830720_5052579484_5052579485_5052579484" />
	<connection from="517755711_5051968278_5051968277_5051968278" to="517755685_5051968277_5051968244_5051968277" />
	<connection from="517755711_5051968278_5051968277_5051968278" to="517755685_5051968277_5051968237_5051968277" />
	<connection from="517755711_5051968278_5051968277_5051968278" to="517755711_5051968277_5051968278_5051968277" />
	<connection from="517755695_5051968269_5051968270_5051968269" to="517755696_5051968270_5051968272_5051968270" />
	<connection from="517755695_5051968269_5051968270_5051968269" to="517755695_5051968270_5051968269_5051968270" />
	<connection from="517755695_5051968269_5051968270_5051968269" to="517755696_5051968270_5051968245_5051968270" />
	<connection from="463800167_4590239655_4590239650_4590239655" to="463800167_4590239655_4590239650_4590239652" />
	<connection from="463800167_4590239655_4590239650_4590239652" to="463800165_4590239650_4590239656_4590239650" />
	<connection from="517830697_5052579774_5052579769_5052579774" to="517830697_5052579774_5052579769_5052579775" />
	<connection from="517830697_5052579774_5052579769_5052579775" to="517830697_5052579774_5052579769_5052579770" />
	<connection from="517830697_5052579774_5052579769_5052579770" to="517830697_5052579769_5052579774_5052579769" />
	<connection from="517830697_5052579774_5052579769_5052579770" to="517830691_5052579769_5052595018_5052579769" />
	<connection from="517832839_5052594974_5052594990_5052594974" to="517832839_5052594974_5052594990_5052594992" />
	<connection from="517832839_5052594974_5052594990_5052594992" to="517832839_5052594974_5052594990_5052594991" />
	<connection from="517832839_5052594974_5052594990_5052594991" to="517832839_5052594990_5052594974_5052594990" />
	<connection from="517832839_5052594974_5052594990_5052594991" to="517832835_5052594990_4455832134_5052594990" />
	<connection from="517832839_5052594974_5052594990_5052594991" to="517832839_5052594990_5052594983_5052594990" />
	<connection from="187525380_1981943512_1981943310_1981943512" to="187525380_1981943310_1981943512_1981943310" />
	<connection from="517755689_5051968246_5051968249_5051968246" to="517755689_5051968246_5051968249_5051968247" />
	<connection from="517755689_5051968246_5051968249_5051968247" to="517755689_5051968246_5051968249_5051968248" />
	<connection from="517755689_5051968246_5051968249_5051968248" to="517755686_5051968249_5051968250_5051968249" />
	<connection from="517755689_5051968246_5051968249_5051968248" to="465458483_5051968249_4588661816_5051968249" />
	<connection from="517755689_5051968246_5051968249_5051968248" to="465458483_5051968249_5051968250_5051968249" />
	<connection from="517755689_5051968246_5051968249_5051968248" to="517755689_5051968249_5051968246_5051968249" />
	<connection from="465456362_4594735210_5051968235_4594735210" to="465456362_4594735210_5051968235_4590066399" />
	<connection from="465456362_4594735210_5051968235_4590066399" to="465456362_4594735210_5051968235_4590066395" />
	<connection from="465456362_4594735210_5051968235_4590066395" to="465456362_4594735210_5051968235_4590066392" />
	<connection from="465456362_4594735210_5051968235_4590066392" to="465456362_5051968235_4594735210_5051968235" />
	<connection from="465456362_4594735210_5051968235_4590066392" to="465456362_5051968235_698831750_5051968235" />
	<connection from="465456362_4594735210_5051968235_4590066392" to="517755680_5051968235_5051968234_5051968235" />
	<connection from="465456362_4594735210_5051968235_4590066392" to="517755680_5051968235_5051968236_5051968235" />
	<connection from="464354526001_4585051411_5051968324_4585051411" to="464354526002_5051968324_4585051411_5051968324" />
	<connection from="464354526001_4585051411_5051968324_4585051411" to="517755727_5051968324_5051967418_5051968324" />
	<connection from="464354526001_4585051411_5051968324_4585051411" to="464354526001_5051968324_5051967417_5051968324" />
	<connection from="464354526001_4585051411_5051968324_4585051411" to="517755726_5051968324_5051968323_5051968324" />
	<connection from="517830726_5052579482_5052579490_5052579482" to="517830726_5052579482_5052579490_5052579494" />
	<connection from="517830726_5052579482_5052579490_5052579494" to="517830726_5052579482_5052579490_5052579511" />
	<connection from="517830726_5052579482_5052579490_5052579511" to="517830721_5052579490_5052579487_5052579490" />
	<connection from="517830726_5052579482_5052579490_5052579511" to="517830726_5052579490_5052579508_5052579490" />
	<connection from="517830726_5052579482_5052579490_5052579511" to="517830726_5052579490_5052579482_5052579490" />
	<connection from="517830708_5052579462_5052579464_5052579462" to="465456350000_5052579464_5052579452_5052579464" />
	<connection from="517830708_5052579462_5052579464_5052579462" to="517830708_5052579464_5052579462_5052579464" />
	<connection from="517830708_5052579462_5052579464_5052579462" to="465456350001_5052579464_5052579802_5052579464" />
	<connection from="517755723_5051967411_4486179616_5051967411" to="517755723_4486179616_5051967411_4486179616" />
	<connection from="517830708_5052579462_5052579465_5052579462" to="517830708_5052579465_5052579462_5052579465" />
	<connection from="517830708_5052579462_5052579465_5052579462" to="517830709_5052579465_5052579475_5052579465" />
	<connection from="187525362_1981943512_1981943500_1981943512" to="187525377_1981943500_1981943308_1981943500" />
	<connection from="187525362_1981943512_1981943500_1981943512" to="187525362_1981943500_1981943477_1981943500" />
	<connection from="187525362_1981943512_1981943500_1981943512" to="187525377_1981943500_1981943306_1981943500" />
	<connection from="187525362_1981943512_1981943500_1981943512" to="187525362_1981943500_1981943512_1981943500" />
	<connection from="187525333_1981943467_1981943489_1981943467" to="187525346_1981943489_1981943360_1981943489" />
	<connection from="187525333_1981943467_1981943489_1981943467" to="187525333_1981943489_1981943467_1981943489" />
	<connection from="517755695_5052579807_5051968269_5052579807" to="517755695_5052579807_5051968269_5051968266" />
	<connection from="517755695_5052579807_5051968269_5051968266" to="517755695_5052579807_5051968269_5051968267" />
	<connection from="517755695_5052579807_5051968269_5051968267" to="517755695_5052579807_5051968269_5051968268" />
	<connection from="517755695_5052579807_5051968269_5051968268" to="517755695_5051968269_5052579807_5051968269" />
	<connection from="517755695_5052579807_5051968269_5051968268" to="465456360003_5051968269_4588661800_5051968269" />
	<connection from="517755695_5052579807_5051968269_5051968268" to="465456360000_5051968269_4588661678_5051968269" />
	<connection from="517755695_5052579807_5051968269_5051968268" to="517755695_5051968269_5051968270_5051968269" />
	<connection from="187525334_1981943551_1981943526_1981943551" to="187525356_1981943526_1981943527_1981943526" />
	<connection from="187525334_1981943551_1981943526_1981943551" to="187525334_1981943526_1981943551_1981943526" />
	<connection from="187525334_1981943551_1981943526_1981943551" to="187525334_1981943526_1981943524_1981943526" />
	<connection from="187525332_1981943379_1981943553_1981943379" to="187525320_1981943553_1981943522_1981943553" />
	<connection from="187525332_1981943379_1981943553_1981943379" to="187525332_1981943553_1981943379_1981943553" />
	<connection from="187525332_1981943379_1981943553_1981943379" to="187525332_1981943553_1981943565_1981943553" />
	<connection from="517755724_5051967404_5051967399_5051967404" to="517755724_5051967399_5051967404_5051967399" />
	<connection from="517755724_5051967404_5051967399_5051967404" to="517755724_5051967399_5051967407_5051967399" />
	<connection from="517755724_5051967404_5051967399_5051967404" to="517755719_5051967399_5051967401_5051967399" />
	<connection from="170673630_3700395695_3700395694_3700395695" to="170673630_3700395695_3700395694_4590239556" />
	<connection from="170673630_3700395695_3700395694_4590239556" to="170673630_3700395695_3700395694_4590239558" />
	<connection from="170673630_3700395695_3700395694_4590239558" to="170673630_3700395695_3700395694_1818311397" />
	<connection from="170673630_3700395695_3700395694_1818311397" to="170673630_3700395695_3700395694_4590239561" />
	<connection from="170673630_3700395695_3700395694_4590239561" to="170673630_3700395695_3700395694_4590239555" />
	<connection from="170673630_3700395695_3700395694_4590239555" to="53255111_3700395694_3700395695_3700395694" />
	<connection from="170673630_3700395695_3700395694_4590239555" to="317809022_3700395694_4475426399_3700395694" />
	<connection from="170673630_3700395695_3700395694_4590239555" to="317809022_3700395694_4475426401_3700395694" />
	<connection from="187525383_1981943558_1981943376_1981943558" to="187525383_1981943558_1981943376_1981943561" />
	<connection from="187525383_1981943558_1981943376_1981943561" to="187525383_1981943558_1981943376_1981943325" />
	<connection from="187525383_1981943558_1981943376_1981943325" to="187525383_1981943376_1981943558_1981943376" />
	<connection from="465458484_5051967369_4588661812_5051967369" to="465458484_5051967369_4588661812_4588661747" />
	<connection from="465458484_5051967369_4588661812_4588661747" to="465458484_5051967369_4588661812_4588661746" />
	<connection from="465458484_5051967369_4588661812_4588661746" to="465458484_5051967369_4588661812_4588661745" />
	<connection from="465458484_5051967369_4588661812_4588661745" to="465458484_5051967369_4588661812_4588661744" />
	<connection from="465458484_5051967369_4588661812_4588661744" to="465458484_4588661812_5051967367_4588661812" />
	<connection from="465458484_5051967369_4588661812_4588661744" to="465458484_4588661812_5051967369_4588661812" />
	<connection from="517755722_5051967416_5051967410_5051967416" to="517755722_5051967410_5051967416_5051967410" />
	<connection from="517755722_5051967416_5051967410_5051967416" to="517755724_5051967410_5051967408_5051967410" />
	<connection from="517755721_1365538400_5051967408_1365538400" to="517755724_5051967408_5051967410_5051967408" />
	<connection from="517755721_1365538400_5051967408_1365538400" to="517755724_5051967408_5051967411_5051967408" />
	<connection from="517755721_1365538400_5051967408_1365538400" to="517755721_5051967408_1365538400_5051967408" />
	<connection from="517755724_5051967404_5051967397_5051967404" to="517755668_5051967397_5051967395_5051967397" />
	<connection from="517755724_5051967404_5051967397_5051967404" to="517755724_5051967397_5051967404_5051967397" />
	<connection from="517755724_5051967404_5051967397_5051967404" to="517755724_5051967397_5051967412_5051967397" />
	<connection from="187525382_1981943548_1981943531_1981943548" to="187525382_1981943531_1981943532_1981943531" />
	<connection from="187525382_1981943548_1981943531_1981943548" to="187525362_1981943531_1981943528_1981943531" />
	<connection from="187525382_1981943548_1981943531_1981943548" to="187525382_1981943531_1981943548_1981943531" />
	<connection from="187525382_1981943548_1981943531_1981943548" to="187525362_1981943531_1981943290_1981943531" />
	<connection from="187538488_1981943381_1981943379_1981943381" to="187525385_1981943379_1981943378_1981943379" />
	<connection from="187538488_1981943381_1981943379_1981943381" to="187525332_1981943379_1981943553_1981943379" />
	<connection from="187538488_1981943381_1981943379_1981943381" to="187538488_1981943379_1981943381_1981943379" />
	<connection from="464354527_4585051404_4585051396_4585051404" to="464354526001_4585051396_4585051399_4585051396" />
	<connection from="464354527_4585051404_4585051396_4585051404" to="464354527_4585051396_4585051397_4585051396" />
	<connection from="464354527_4585051404_4585051396_4585051404" to="464354527_4585051396_4585051404_4585051396" />
	<connection from="517755719_5051967399_5051967401_5051967399" to="517755719_5051967399_5051967401_5051967400" />
	<connection from="517755719_5051967399_5051967401_5051967400" to="517755718_5051967401_4585141347_5051967401" />
	<connection from="517755719_5051967399_5051967401_5051967400" to="517755719_5051967401_5051967404_5051967401" />
	<connection from="517755719_5051967399_5051967401_5051967400" to="517755719_5051967401_5051967399_5051967401" />
	<connection from="465456362_4594735210_5051967394_4594735210" to="465456362_5051967394_4594735210_5051967394" />
	<connection from="465456362_4594735210_5051967394_4594735210" to="517755716_5051967394_5051967393_5051967394" />
	<connection from="465456362_4594735210_5051967394_4594735210" to="517755716_5051967394_5051967407_5051967394" />
	<connection from="465456362_4594735210_5051967394_4594735210" to="465456362_5051967394_673845202_5051967394" />
	<connection from="464351598_4590444002_5052594930_4590444002" to="517832843_5052594930_5052595017_5052594930" />
	<connection from="464351598_4590444002_5052594930_4590444002" to="464351598_5052594930_5052595012_5052594930" />
	<connection from="464351598_4590444002_5052594930_4590444002" to="464351598_5052594930_4590444002_5052594930" />
	<connection from="464351598_4590444002_5052594930_4590444002" to="517832843_5052594930_5052595016_5052594930" />
	<connection from="517755676_5051967292_5051967305_5051967292" to="517755676_5051967305_5051967306_5051967305" />
	<connection from="517755676_5051967292_5051967305_5051967292" to="517755676_5051967305_5051967292_5051967305" />
	<connection from="517755676_5051967292_5051967305_5051967292" to="517755673_5051967305_5051967291_5051967305" />
	<connection from="465458484_5051967369_5051967364_5051967369" to="465458484_5051967369_5051967364_698805754" />
	<connection from="465458484_5051967369_5051967364_698805754" to="465458484_5051967364_5051968252_5051967364" />
	<connection from="465458484_5051967369_5051967364_698805754" to="517830706_5051967364_5051967365_5051967364" />
	<connection from="465458484_5051967369_5051967364_698805754" to="517755700_5051967364_5052579451_5051967364" />
	<connection from="465458484_5051967369_5051967364_698805754" to="465458484_5051967364_5051967369_5051967364" />
	<connection from="187525390_1981943394_1981943397_1981943394" to="187525390_1981943397_1981943394_1981943397" />
	<connection from="187525390_1981943394_1981943397_1981943394" to="187525352_1981943397_1981943547_1981943397" />
	<connection from="187525390_1981943394_1981943397_1981943394" to="517755717_1981943397_5051967395_1981943397" />
	<connection from="187525333_1981943467_1981943459_1981943467" to="187525333_1981943459_1981943452_1981943459" />
	<connection from="187525333_1981943467_1981943459_1981943467" to="187525345_1981943459_1981943276_1981943459" />
	<connection from="187525333_1981943467_1981943459_1981943467" to="187525333_1981943459_1981943467_1981943459" />
	<connection from="517755703_5051967371_5052579418_5051967371" to="517755703_5051967371_5052579418_5051967370" />
	<connection from="517755703_5051967371_5052579418_5051967370" to="517755703_5052579418_5051967369_5052579418" />
	<connection from="517755703_5051967371_5052579418_5051967370" to="517830671_5052579418_5052579417_5052579418" />
	<connection from="517755703_5051967371_5052579418_5051967370" to="517755703_5052579418_5051967371_5052579418" />
	<connection from="517830709_5052579475_5052579465_5052579475" to="517830709_5052579475_5052579465_5052579463" />
	<connection from="517830709_5052579475_5052579465_5052579463" to="517830708_5052579465_5052579462_5052579465" />
	<connection from="517830709_5052579475_5052579465_5052579463" to="517830709_5052579465_5052579475_5052579465" />
	<connection from="517755736_4585045387_5051968334_4585045387" to="517755736_4585045387_5051968334_5051968342" />
	<connection from="517755736_4585045387_5051968334_5051968342" to="517755735_5051968334_5051968337_5051968334" />
	<connection from="517755736_4585045387_5051968334_5051968342" to="517755736_5051968334_4585045387_5051968334" />
	<connection from="517755736_4585045387_5051968334_5051968342" to="517755736_5051968334_5051968340_5051968334" />
	<connection from="517830713_5052579472_5052579470_5052579472" to="517830712_5052579470_5052579469_5052579470" />
	<connection from="517830713_5052579472_5052579470_5052579472" to="517830713_5052579470_5052579475_5052579470" />
	<connection from="517830713_5052579472_5052579470_5052579472" to="517830713_5052579470_5052579472_5052579470" />
	<connection from="187525330_1981943441_1981943624_1981943441" to="187525330_1981943624_1981943441_1981943624" />
	<connection from="517832844_5052595019_5052595018_5052595019" to="517832844_5052595018_5052595019_5052595018" />
	<connection from="517832844_5052595019_5052595018_5052595019" to="517830691_5052595018_5052595224_5052595018" />
	<connection from="517832844_5052595019_5052595018_5052595019" to="517830691_5052595018_5052579769_5052595018" />
	<connection from="465456358_673845212_4590119042_673845212" to="465456358_673845212_4590119042_4590119041" />
	<connection from="465456358_673845212_4590119042_4590119041" to="465456355001_4590119042_673845213_4590119042" />
	<connection from="465456358_673845212_4590119042_4590119041" to="465456358_4590119042_4590119250_4590119042" />
	<connection from="465456358_673845212_4590119042_4590119041" to="465456358_4590119042_673845212_4590119042" />
	<connection from="517755710_5051967388_5051967385_5051967388" to="517755711_5051967385_5051967285_5051967385" />
	<connection from="517755710_5051967388_5051967385_5051967388" to="517755710_5051967385_5051967388_5051967385" />
	<connection from="517755710_5051967388_5051967385_5051967388" to="517755711_5051967385_5051967386_5051967385" />
	<connection from="187525317_1981943463_1981943475_1981943463" to="187525331_1981943475_1981943470_1981943475" />
	<connection from="187525317_1981943463_1981943475_1981943463" to="187525317_1981943475_1981943463_1981943475" />
	<connection from="187525317_1981943463_1981943475_1981943463" to="187525331_1981943475_1981943496_1981943475" />
	<connection from="187525317_1981943463_1981943475_1981943463" to="187525386_1981943475_1981943388_1981943475" />
	<connection from="187525317_1981943463_1981943475_1981943463" to="187525322_1981943475_1981943485_1981943475" />
	<connection from="187525317_1981943463_1981943475_1981943463" to="187525318_1981943475_1981943456_1981943475" />
	<connection from="517833570_4485955618_698815592_4485955618" to="517833570_4485955618_698815592_5052600605" />
	<connection from="517833570_4485955618_698815592_5052600605" to="517833570_698815592_4485955618_698815592" />
	<connection from="517833570_4485955618_698815592_5052600605" to="517755720_698815592_5051967281_698815592" />
	<connection from="517833570_4485955618_698815592_5052600605" to="317809022_698815592_1786731081_698815592" />
	<connection from="517833570_4485955618_698815592_5052600605" to="317809022_698815592_452617139_698815592" />
	<connection from="187525332_1981943569_1981943565_1981943569" to="187525332_1981943565_1981943569_1981943565" />
	<connection from="187525332_1981943569_1981943565_1981943569" to="187525332_1981943565_1981943553_1981943565" />
	<connection from="187525332_1981943569_1981943565_1981943569" to="187525319_1981943565_1981943394_1981943565" />
	<connection from="187525339_1981943281_1981943431_1981943281" to="187525339_1981943431_1981943281_1981943431" />
	<connection from="187525339_1981943281_1981943431_1981943281" to="187525333_1981943431_1981943437_1981943431" />
	<connection from="187525339_1981943281_1981943431_1981943281" to="187525333_1981943431_1981943641_1981943431" />
	<connection from="517755709_5051968280_5051967384_5051968280" to="465456360000_5051967384_5052579415_5051967384" />
	<connection from="517755709_5051968280_5051967384_5051968280" to="517755709_5051967384_5051968280_5051967384" />
	<connection from="517755709_5051968280_5051967384_5051968280" to="465456360003_5051967384_5051967377_5051967384" />
	<connection from="517755709_5051968280_5051967384_5051968280" to="517755698_5051967384_5051967376_5051967384" />
	<connection from="517755747_5051967372_5051967375_5051967372" to="517755704_5051967375_5051967379_5051967375" />
	<connection from="517755747_5051967372_5051967375_5051967372" to="517755747_5051967375_5051968351_5051967375" />
	<connection from="517755747_5051967372_5051967375_5051967372" to="517755747_5051967375_5051967372_5051967375" />
	<connection from="517830726_5052579479_5052579495_5052579479" to="517830726_5052579479_5052579495_5052579507" />
	<connection from="517830726_5052579479_5052579495_5052579507" to="517830726_5052579479_5052579495_5052579506" />
	<connection from="517830726_5052579479_5052579495_5052579506" to="517830726_5052579479_5052579495_5052579505" />
	<connection from="517830726_5052579479_5052579495_5052579505" to="517830726_5052579479_5052579495_5052579504" />
	<connection from="517830726_5052579479_5052579495_5052579504" to="517830726_5052579479_5052579495_5052579503" />
	<connection from="517830726_5052579479_5052579495_5052579503" to="517830722_5052579495_4475423984_5052579495" />
	<connection from="517830726_5052579479_5052579495_5052579503" to="517830726_5052579495_5052579479_5052579495" />
	<connection from="517830726_5052579479_5052579495_5052579503" to="517830726_5052579495_5052594977_5052579495" />
	<connection from="517755677_5051968222_5051968228_5051968222" to="517755677_5051968222_5051968228_5051968223" />
	<connection from="517755677_5051968222_5051968228_5051968223" to="517755677_5051968222_5051968228_5051968224" />
	<connection from="517755677_5051968222_5051968228_5051968224" to="517755677_5051968228_5051968222_5051968228" />
	<connection from="517755677_5051968222_5051968228_5051968224" to="517755678_5051968228_5051968227_5051968228" />
	<connection from="517755677_5051968222_5051968228_5051968224" to="517755677_5051968228_5051968226_5051968228" />
	<connection from="187525375_1981943458_1981943262_1981943458" to="187525375_1981943262_1981943458_1981943262" />
	<connection from="517830673_5052579723_5052579724_5052579723" to="517830673_5052579724_5052579723_5052579724" />
	<connection from="517830673_5052579723_5052579724_5052579723" to="517830675_5052579724_5052579725_5052579724" />
	<connection from="517832839_5052595005_5052594975_5052595005" to="517832839_5052595005_5052594975_5052595004" />
	<connection from="517832839_5052595005_5052594975_5052595004" to="517832839_5052595005_5052594975_5052595003" />
	<connection from="517832839_5052595005_5052594975_5052595003" to="517832839_5052595005_5052594975_5052594969" />
	<connection from="517832839_5052595005_5052594975_5052594969" to="517832839_5052595005_5052594975_5052595002" />
	<connection from="517832839_5052595005_5052594975_5052595002" to="517832839_5052595005_5052594975_5052595001" />
	<connection from="517832839_5052595005_5052594975_5052595001" to="517832839_5052595005_5052594975_5052595000" />
	<connection from="517832839_5052595005_5052594975_5052595000" to="517832839_5052595005_5052594975_5052594999" />
	<connection from="517832839_5052595005_5052594975_5052594999" to="517832839_5052595005_5052594975_5052594998" />
	<connection from="517832839_5052595005_5052594975_5052594998" to="517832839_5052595005_5052594975_5052594997" />
	<connection from="517832839_5052595005_5052594975_5052594997" to="517832839_5052595005_5052594975_5052594996" />
	<connection from="517832839_5052595005_5052594975_5052594996" to="517832839_5052595005_5052594975_5052594995" />
	<connection from="517832839_5052595005_5052594975_5052594995" to="517832839_5052595005_5052594975_5052595007" />
	<connection from="517832839_5052595005_5052594975_5052595007" to="517832839_5052595005_5052594975_5052594994" />
	<connection from="517832839_5052595005_5052594975_5052594994" to="517832839_5052595005_5052594975_5052594993" />
	<connection from="517832839_5052595005_5052594975_5052594993" to="517832839_5052594975_5052595005_5052594975" />
	<connection from="517832839_5052595005_5052594975_5052594993" to="517830725_5052594975_4475423988_5052594975" />
	<connection from="517832839_5052595005_5052594975_5052594993" to="517832839_5052594975_5052594974_5052594975" />
	<connection from="463800166_4590239649_4590239655_4590239649" to="463800166_4590239649_4590239655_4590239651" />
	<connection from="463800166_4590239649_4590239655_4590239651" to="517830702_4590239655_5052579803_4590239655" />
	<connection from="463800166_4590239649_4590239655_4590239651" to="463800164_4590239655_698818672_4590239655" />
	<connection from="463800166_4590239649_4590239655_4590239651" to="463800167_4590239655_4590239650_4590239655" />
	<connection from="187525315_1981943352_1981943556_1981943352" to="187525306_1981943556_1981943562_1981943556" />
	<connection from="187525315_1981943352_1981943556_1981943352" to="187525315_1981943556_1981943534_1981943556" />
	<connection from="187525315_1981943352_1981943556_1981943352" to="187525306_1981943556_1981943378_1981943556" />
	<connection from="187525315_1981943352_1981943556_1981943352" to="187525315_1981943556_1981943352_1981943556" />
	<connection from="517830690_5052579760_5052579761_5052579760" to="517830690_5052579761_5052579760_5052579761" />
	<connection from="517830690_5052579760_5052579761_5052579760" to="517830686_5052579761_5052579762_5052579761" />
	<connection from="187525369_1981943255_1981943455_1981943255" to="187525369_1981943455_1981943255_1981943455" />
	<connection from="187525369_1981943255_1981943455_1981943255" to="187525363_1981943455_1981943462_1981943455" />
	<connection from="187525369_1981943255_1981943455_1981943255" to="187525363_1981943455_1981943446_1981943455" />
	<connection from="517755745_452617139_5051967412_452617139" to="517755745_5051967412_452617139_5051967412" />
	<connection from="517755745_452617139_5051967412_452617139" to="517755724_5051967412_5051967397_5051967412" />
	<connection from="517755745_452617139_5051967412_452617139" to="517755745_5051967412_5051968285_5051967412" />
	<connection from="517755745_452617139_5051967412_452617139" to="517755724_5051967412_5051967411_5051967412" />
	<connection from="517830706_5051967365_5051968253_5051967365" to="517830706_5051968253_5051967366_5051968253" />
	<connection from="517830706_5051967365_5051968253_5051967365" to="517830706_5051968253_5051967365_5051968253" />
	<connection from="517830706_5051967365_5051968253_5051967365" to="517755687_5051968253_5051968252_5051968253" />
	<connection from="517755677_5051968222_5051968221_5051968222" to="517755677_5051968221_5051968222_5051968221" />
	<connection from="517755677_5051968222_5051968221_5051968222" to="517755711_5051968221_5051967389_5051968221" />
	<connection from="517755677_5051968222_5051968221_5051968222" to="517755711_5051968221_5051967387_5051968221" />
	<connection from="187525362_1981943251_1981943487_1981943251" to="187525362_1981943487_1981943477_1981943487" />
	<connection from="187525362_1981943251_1981943487_1981943251" to="187525364_1981943487_1981943373_1981943487" />
	<connection from="187525362_1981943251_1981943487_1981943251" to="187525364_1981943487_1981943466_1981943487" />
	<connection from="187525362_1981943251_1981943487_1981943251" to="187525362_1981943487_1981943251_1981943487" />
	<connection from="187525357_1981943564_1981943404_1981943564" to="187525392_1981943404_1981943408_1981943404" />
	<connection from="187525357_1981943564_1981943404_1981943564" to="187525357_1981943404_1981943564_1981943404" />