<edges>
	<edge id="517755684_5051968238_5051968237_5051968238" from="5051968238" to="5051968237" numLanes="1" speed="8.33" />
	<edge id="187525362_1981943512_1981943518_1981943512" from="1981943512" to="1981943518" numLanes="1" speed="8.33" />
	<edge id="517755676_5051968226_5051968241_5051968226" from="5051968226" to="5051968241" numLanes="1" speed="8.33" />
	<edge id="463800162_5051967293_4590239639_5051967293" from="5051967293" to="4590239640" numLanes="1" speed="5.56" />
	<edge id="463800162_5051967293_4590239639_4590239640" from="4590239640" to="4590239639" numLanes="1" speed="5.56" />
	<edge id="135251703_674001591_674001532_674001591" from="674001591" to="452617187" numLanes="1" speed="5.56" />
	<edge id="135251703_674001591_674001532_452617187" from="452617187" to="674001553" numLanes="1" speed="5.56" />
	<edge id="135251703_674001591_674001532_674001553" from="674001553" to="4475426394" numLanes="1" speed="5.56" />
	<edge id="135251703_674001591_674001532_4475426394" from="4475426394" to="4475426395" numLanes="1" speed="5.56" />
	<edge id="135251703_674001591_674001532_4475426395" from="4475426395" to="452617192" numLanes="1" speed="5.56" />
	<edge id="135251703_674001591_674001532_452617192" from="452617192" to="452617193" numLanes="1" speed="5.56" />
	<edge id="135251703_674001591_674001532_452617193" from="452617193" to="674001532" numLanes="1" speed="5.56" />
	<edge id="517830719_5052579483_5052579484_5052579483" from="5052579483" to="5052579484" numLanes="1" speed="8.33" />
	<edge id="517755711_5051968278_5051968277_5051968278" from="5051968278" to="5051968277" numLanes="1" speed="8.33" />
	<edge id="517755695_5051968269_5051968270_5051968269" from="5051968269" to="5051968270" numLanes="1" speed="8.33" />
	<edge id="463800167_4590239655_4590239650_4590239655" from="4590239655" to="4590239652" numLanes="1" speed="5.56" />
	<edge id="463800167_4590239655_4590239650_4590239652" from="4590239652" to="4590239650" numLanes="1" speed="5.56" />
	<edge id="517830697_5052579774_5052579769_5052579774" from="5052579774" to="5052579775" numLanes="1" speed="8.33" />
	<edge id="517830697_5052579774_5052579769_5052579775" from="5052579775" to="5052579770" numLanes="1" speed="8.33" />
	<edge id="517830697_5052579774_5052579769_5052579770" from="5052579770" to="5052579769" numLanes="1" speed="8.33" />
	<edge id="517832839_5052594974_5052594990_5052594974" from="5052594974" to="5052594992" numLanes="1" speed="8.33" />
	<edge id="517832839_5052594974_5052594990_5052594992" from="5052594992" to="5052594991" numLanes="1" speed="8.33" />
	<edge id="517832839_5052594974_5052594990_5052594991" from="5052594991" to="5052594990" numLanes="1" speed="8.33" />
	<edge id="187525380_1981943512_1981943310_1981943512" from="1981943512" to="1981943310" numLanes="1" speed="8.33" />
	<edge id="517755689_5051968246_5051968249_5051968246" from="5051968246" to="5051968247" numLanes="1" speed="8.33" />
	<edge id="517755689_5051968246_5051968249_5051968247" from="5051968247" to="5051968248" numLanes="1" speed="8.33" />
	<edge id="517755689_5051968246_5051968249_5051968248" from="5051968248" to="5051968249" numLanes="1" speed="8.33" />
	<edge id="465456362_4594735210_5051968235_4594735210" from="4594735210" to="4590066399" numLanes="1" speed="8.33" />
	<edge id="465456362_4594735210_5051968235_4590066399" from="4590066399" to="4590066395" numLanes="1" speed="8.33" />
	<edge id="465456362_4594735210_5051968235_4590066395" from="4590066395" to="4590066392" numLanes="1" speed="8.33" />
	<edge id="465456362_4594735210_5051968235_4590066392" from="4590066392" to="5051968235" numLanes="1" speed="8.33" />
	<edge id="464354526001_4585051411_5051968324_4585051411" from="4585051411" to="5051968324" numLanes="1" speed="8.33" />
	<edge id="517830726_5052579482_5052579490_5052579482" from="5052579482" to="5052579494" numLanes="1" speed="8.33" />
	<edge id="517830726_5052579482_5052579490_5052579494" from="5052579494" to="5052579511" numLanes="1" speed="8.33" />
	<edge id="517830726_5052579482_5052579490_5052579511" from="5052579511" to="5052579490" numLanes="1" speed="8.33" />
	<edge id="517830708_5052579462_5052579464_5052579462" from="5052579462" to="5052579464" numLanes="1" speed="8.33" />
	<edge id="517755723_5051967411_4486179616_5051967411" from="5051967411" to="4486179616" numLanes="1" speed="8.33" />
	<edge id="517830708_5052579462_5052579465_5052579462" from="5052579462" to="5052579465" numLanes="1" speed="8.33" />
	<edge id="187525362_1981943512_1981943500_1981943512" from="1981943512" to="1981943500" numLanes="1" speed="8.33" />
	<edge id="187525333_1981943467_1981943489_1981943467" from="1981943467" to="1981943489" numLanes="1" speed="8.33" />
	<edge id="517755695_5052579807_5051968269_5052579807" from="5052579807" to="5051968266" numLanes="1" speed="8.33" />
	<edge id="517755695_5052579807_5051968269_5051968266" from="5051968266" to="5051968267" numLanes="1" speed="8.33" />
	<edge id="517755695_5052579807_5051968269_5051968267" from="5051968267" to="5051968268" numLanes="1" speed="8.33" />
	<edge id="517755695_5052579807_5051968269_5051968268" from="5051968268" to="5051968269" numLanes="1" speed="8.33" />
	<edge id="187525334_1981943551_1981943526_1981943551" from="1981943551" to="1981943526" numLanes="1" speed="8.33" />
	<edge id="187525332_1981943379_1981943553_1981943379" from="1981943379" to="1981943553" numLanes="1" speed="8.33" />
	<edge id="517755724_5051967404_5051967399_5051967404" from="5051967404" to="5051967399" numLanes="1" speed="8.33" />
	<edge id="170673630_3700395695_3700395694_3700395695" from="3700395695" to="4590239556" numLanes="1" speed="5.56" />
	<edge id="170673630_3700395695_3700395694_4590239556" from="4590239556" to="4590239558" numLanes="1" speed="5.56" />
	<edge id="170673630_3700395695_3700395694_4590239558" from="4590239558" to="1818311397" numLanes="1" speed="5.56" />
	<edge id="170673630_3700395695_3700395694_1818311397" from="1818311397" to="4590239561" numLanes="1" speed="5.56" />
	<edge id="170673630_3700395695_3700395694_4590239561" from="4590239561" to="4590239555" numLanes="1" speed="5.56" />
	<edge id="170673630_3700395695_3700395694_4590239555" from="4590239555" to="3700395694" numLanes="1" speed="5.56" />
	<edge id="187525383_1981943558_1981943376_1981943558" from="1981943558" to="1981943561" numLanes="1" speed="8.33" />
	<edge id="187525383_1981943558_1981943376_1981943561" from="1981943561" to="1981943325" numLanes="1" speed="8.33" />
	<edge id="187525383_1981943558_1981943376_1981943325" from="1981943325" to="1981943376" numLanes="1" speed="8.33" />
	<edge id="465458484_5051967369_4588661812_5051967369" from="5051967369" to="4588661747" numLanes="1" speed="8.33" />
	<edge id="465458484_5051967369_4588661812_4588661747" from="4588661747" to="4588661746" numLanes="1" speed="8.33" />
	<edge id="465458484_5051967369_4588661812_4588661746" from="4588661746" to="4588661745" numLanes="1" speed="8.33" />
	<edge id="465458484_5051967369_4588661812_4588661745" from="4588661745" to="4588661744" numLanes="1" speed="8.33" />
	<edge id="465458484_5051967369_4588661812_4588661744" from="4588661744" to="4588661812" numLanes="1" speed="8.33" />
	<edge id="517755722_5051967416_5051967410_5051967416" from="5051967416" to="5051967410" numLanes="1" speed="8.33" />
	<edge id="517755721_1365538400_5051967408_1365538400" from="1365538400" to="5051967408" numLanes="1" speed="8.33" />
	<edge id="517755724_5051967404_5051967397_5051967404" from="5051967404" to="5051967397" numLanes="1" speed="8.33" />
	<edge id="187525382_1981943548_1981943531_1981943548" from="1981943548" to="1981943531" numLanes="1" speed="8.33" />
	<edge id="187538488_1981943381_1981943379_1981943381" from="1981943381" to="1981943379" numLanes="1" speed="8.33" />
	<edge id="464354527_4585051404_4585051396_4585051404" from="4585051404" to="4585051396" numLanes="1" speed="8.33" />
	<edge id="517755719_5051967399_5051967401_5051967399" from="5051967399" to="5051967400" numLanes="1" speed="8.33" />
	<edge id="517755719_5051967399_5051967401_5051967400" from="5051967400" to="5051967401" numLanes="1" speed="8.33" />
	<edge id="465456362_4594735210_5051967394_4594735210" from="4594735210" to="5051967394" numLanes="1" speed="8.33" />
	<edge id="464351598_4590444002_5052594930_4590444002" from="4590444002" to="5052594930" numLanes="1" speed="8.33" />
	<edge id="517755676_5051967292_5051967305_5051967292" from="5051967292" to="5051967305" numLanes="1" speed="8.33" />
	<edge id="465458484_5051967369_5051967364_5051967369" from="5051967369" to="698805754" numLanes="1" speed="8.33" />
	<edge id="465458484_5051967369_5051967364_698805754" from="698805754" to="5051967364" numLanes="1" speed="8.33" />
	<edge id="187525390_1981943394_1981943397_1981943394" from="1981943394" to="1981943397" numLanes="1" speed="8.33" />
	<edge id="187525333_1981943467_1981943459_1981943467" from="1981943467" to="1981943459" numLanes="1" speed="8.33" />
	<edge id="517755703_5051967371_5052579418_5051967371" from="5051967371" to="5051967370" numLanes="1" speed="8.33" />
	<edge id="517755703_5051967371_5052579418_5051967370" from="5051967370" to="5052579418" numLanes="1" speed="8.33" />
	<edge id="517830709_5052579475_5052579465_5052579475" from="5052579475" to="5052579463" numLanes="1" speed="8.33" />
	<edge id="517830709_5052579475_5052579465_5052579463" from="5052579463" to="5052579465" numLanes="1" speed="8.33" />
	<edge id="517755736_4585045387_5051968334_4585045387" from="4585045387" to="5051968342" numLanes="1" speed="8.33" />
	<edge id="517755736_4585045387_5051968334_5051968342" from="5051968342" to="5051968334" numLanes="1" speed="8.33" />
	<edge id="517830713_5052579472_5052579470_5052579472" from="5052579472" to="5052579470" numLanes="1" speed="8.33" />
	<edge id="187525330_1981943441_1981943624_1981943441" from="1981943441" to="1981943624" numLanes="1" speed="8.33" />
	<edge id="517832844_5052595019_5052595018_5052595019" from="5052595019" to="5052595018" numLanes="1" speed="8.33" />
	<edge id="465456358_673845212_4590119042_673845212" from="673845212" to="4590119041" numLanes="1" speed="8.33" />
	<edge id="465456358_673845212_4590119042_4590119041" from="4590119041" to="4590119042" numLanes="1" speed="8.33" />
	<edge id="517755710_5051967388_5051967385_5051967388" from="5051967388" to="5051967385" numLanes="1" speed="8.33" />
	<edge id="187525317_1981943463_1981943475_1981943463" from="1981943463" to="1981943475" numLanes="1" speed="8.33" />
	<edge id="517833570_4485955618_698815592_4485955618" from="4485955618" to="5052600605" numLanes="1" speed="8.33" />
	<edge id="517833570_4485955618_698815592_5052600605" from="5052600605" to="698815592" numLanes="1" speed="8.33" />
	<edge id="187525332_1981943569_1981943565_1981943569" from="1981943569" to="1981943565" numLanes="1" speed="8.33" />
	<edge id="187525339_1981943281_1981943431_1981943281" from="1981943281" to="1981943431" numLanes="1" speed="8.33" />
	<edge id="517755709_5051968280_5051967384_5051968280" from="5051968280" to="5051967384" numLanes="1" speed="8.33" />
	<edge id="517755747_5051967372_5051967375_5051967372" from="5051967372" to="5051967375" numLanes="1" speed="8.33" />
	<edge id="517830726_5052579479_5052579495_5052579479" from="5052579479" to="5052579507" numLanes="1" speed="8.33" />
	<edge id="517830726_5052579479_5052579495_5052579507" from="5052579507" to="5052579506" numLanes="1" speed="8.33" />
	<edge id="517830726_5052579479_5052579495_5052579506" from="5052579506" to="5052579505" numLanes="1" speed="8.33" />
	<edge id="517830726_5052579479_5052579495_5052579505" from="5052579505" to="5052579504" numLanes="1" speed="8.33" />
	<edge id="517830726_5052579479_5052579495_5052579504" from="5052579504" to="5052579503" numLanes="1" speed="8.33" />
	<edge id="517830726_5052579479_5052579495_5052579503" from="5052579503" to="5052579495" numLanes="1" speed="8.33" />
	<edge id="517755677_5051968222_5051968228_5051968222" from="5051968222" to="5051968223" numLanes="1" speed="8.33" />
	<edge id="517755677_5051968222_5051968228_5051968223" from="5051968223" to="5051968224" numLanes="1" speed="8.33" />
	<edge id="517755677_5051968222_5051968228_5051968224" from="5051968224" to="5051968228" numLanes="1" speed="8.33" />
	<edge id="187525375_1981943458_1981943262_1981943458" from="1981943458" to="1981943262" numLanes="1" speed="8.33" />
	<edge id="517830673_5052579723_5052579724_5052579723" from="5052579723" to="5052579724" numLanes="1" speed="8.33" />
	<edge id="517832839_5052595005_5052594975_5052595005" from="5052595005" to="5052595004" numLanes="1" speed="8.33" />
	<edge id="517832839_5052595005_5052594975_5052595004" from="5052595004" to="5052595003" numLanes="1" speed="8.33" />
	<edge id="517832839_5052595005_5052594975_5052595003" from="5052595003" to="5052594969" numLanes="1" speed="8.33" />
	<edge id="517832839_5052595005_5052594975_5052594969" from="5052594969" to="5052595002" numLanes="1" speed="8.33" />
	<edge id="517832839_5052595005_5052594975_5052595002" from="5052595002" to="5052595001" numLanes="1" speed="8.33" />
	<edge id="517832839_5052595005_5052594975_5052595001" from="5052595001" to="5052595000" numLanes="1" speed="8.33" />
	<edge id="517832839_5052595005_5052594975_5052595000" from="5052595000" to="5052594999" numLanes="1" speed="8.33" />
	<edge id="517832839_5052595005_5052594975_5052594999" from="5052594999" to="5052594998" numLanes="1" speed="8.33" />
	<edge id="517832839_5052595005_5052594975_5052594998" from="5052594998" to="5052594997" numLanes="1" speed="8.33" />
	<edge id="517832839_5052595005_5052594975_5052594997" from="5052594997" to="5052594996" numLanes="1" speed="8.33" />
	<edge id="517832839_5052595005_5052594975_5052594996" from="5052594996" to="5052594995" numLanes="1" speed="8.33" />
	<edge id="517832839_5052595005_5052594975_5052594995" from="5052594995" to="5052595007" numLanes="1" speed="8.33" />
	<edge id="517832839_5052595005_5052594975_5052595007" from="5052595007" to="5052594994" numLanes="1" speed="8.33" />
	<edge id="517832839_5052595005_5052594975_5052594994" from="5052594994" to="5052594993" numLanes="1" speed="8.33" />
	<edge id="517832839_5052595005_5052594975_5052594993" from="5052594993" to="5052594975" numLanes="1" speed="8.33" />
	<edge id="463800166_4590239649_4590239655_4590239649" from="4590239649" to="4590239651" numLanes="1" speed="5.56" />
	<edge id="463800166_4590239649_4590239655_4590239651" from="4590239651" to="4590239655" numLanes="1" speed="5.56" />
	<edge id="187525315_1981943352_1981943556_1981943352" from="1981943352" to="1981943556" numLanes="1" speed="8.33" />
	<edge id="517830690_5052579760_5052579761_5052579760" from="5052579760" to="5052579761" numLanes="1" speed="8.33" />
	<edge id="187525369_1981943255_1981943455_1981943255" from="1981943255" to="1981943455" numLanes="1" speed="8.33" />
	<edge id="517755745_452617139_5051967412_452617139" from="452617139" to="5051967412" numLanes="1" speed="8.33" />
	<edge id="517830706_5051967365_5051968253_5051967365" from="5051967365" to="5051968253" numLanes="1" speed="8.33" />
	<edge id="517755677_5051968222_5051968221_5051968222" from="5051968222" to="5051968221" numLanes="1" speed="8.33" />
	<edge id="187525362_1981943251_1981943487_1981943251" from="1981943251" to="1981943487" numLanes="1" speed="8.33" />
	<edge id="187525357_1981943564_1981943404_1981943564" from="1981943564" to="1981943404" numLanes="1" speed="8.33" />
	<edge id="517830726_5052579493_5051968281_5052579493" from="5052579493" to="5052579492" numLanes="1" speed="8.33" />
	<edge id="517830726_5052579493_5051968281_5052579492" from="5052579492" to="5052579491" numLanes="1" speed="8.33" />
	<edge id="517830726_5052579493_5051968281_5052579491" from="5052579491" to="5052579794" numLanes="1" speed="8.33" />
	<edge id="517830726_5052579493_5051968281_5052579794" from="5052579794" to="5052579516" numLanes="1" speed="8.33" />
	<edge id="517830726_5052579493_5051968281_5052579516" from="5052579516" to="5052579517" numLanes="1" speed="8.33" />
	<edge id="517830726_5052579493_5051968281_5052579517" from="5052579517" to="5052579518" numLanes="1" speed="8.33" />
	<edge id="517830726_5052579493_5051968281_5052579518" from="5052579518" to="5052579519" numLanes="1" speed="8.33" />
	<edge id="517830726_5052579493_5051968281_5052579519" from="5052579519" to="5052579520" numLanes="1" speed="8.33" />
	<edge id="517830726_5052579493_5051968281_5052579520" from="5052579520" to="5052579821" numLanes="1" speed="8.33" />
	<edge id="517830726_5052579493_5051968281_5052579821" from="5052579821" to="5052579822" numLanes="1" speed="8.33" />
	<edge id="517830726_5052579493_5051968281_5052579822" from="5052579822" to="5052579823" numLanes="1" speed="8.33" />
	<edge id="517830726_5052579493_5051968281_5052579823" from="5052579823" to="5052579824" numLanes="1" speed="8.33" />
	<edge id="517830726_5052579493_5051968281_5052579824" from="5052579824" to="5052579825" numLanes="1" speed="8.33" />
	<edge id="517830726_5052579493_5051968281_5052579825" from="5052579825" to="5052579826" numLanes="1" speed="8.33" />
	<edge id="517830726_5052579493_5051968281_5052579826" from="5052579826" to="5051968281" numLanes="1" speed="8.33" />
	<edge id="517755705_5051967378_5051967377_5051967378" from="5051967378" to="5051967377" numLanes="1" speed="8.33" />
	<edge id="517830709_5052579465_5052579475_5052579465" from="5052579465" to="5052579463" numLanes="1" speed="8.33" />
	<edge id="517830709_5052579465_5052579475_5052579463" from="5052579463" to="5052579475" numLanes="1" speed="8.33" />
	<edge id="517755719_5051967401_5051967399_5051967401" from="5051967401" to="5051967400" numLanes="1" speed="8.33" />
	<edge id="517755719_5051967401_5051967399_5051967400" from="5051967400" to="5051967399" numLanes="1" speed="8.33" />
	<edge id="517830713_5052579472_5052579477_5052579472" from="5052579472" to="5052579476" numLanes="1" speed="8.33" />
	<edge id="517830713_5052579472_5052579477_5052579476" from="5052579476" to="5052579477" numLanes="1" speed="8.33" />
	<edge id="187525307_1981943501_1981943612_1981943501" from="1981943501" to="1981943612" numLanes="1" speed="8.33" />
	<edge id="517755747_5051968264_5051968356_5051968264" from="5051968264" to="5051968356" numLanes="1" speed="8.33" />
	<edge id="517832842_5051968361_5052595012_5051968361" from="5051968361" to="5052595012" numLanes="1" speed="8.33" />
	<edge id="187525362_1981943531_1981943290_1981943531" from="1981943531" to="1981943530" numLanes="1" speed="8.33" />
	<edge id="187525362_1981943531_1981943290_1981943530" from="1981943530" to="1981943290" numLanes="1" speed="8.33" />
	<edge id="517755747_5051968350_5051968329_5051968350" from="5051968350" to="5051968329" numLanes="1" speed="8.33" />
	<edge id="517830712_5052579469_5052579470_5052579469" from="5052579469" to="5052579470" numLanes="1" speed="8.33" />
	<edge id="517832833_5052594970_5052595005_5052594970" from="5052594970" to="5052594963" numLanes="1" speed="8.33" />
	<edge id="517832833_5052594970_5052595005_5052594963" from="5052594963" to="5052594964" numLanes="1" speed="8.33" />
	<edge id="517832833_5052594970_5052595005_5052594964" from="5052594964" to="5052594965" numLanes="1" speed="8.33" />
	<edge id="517832833_5052594970_5052595005_5052594965" from="5052594965" to="5052594966" numLanes="1" speed="8.33" />
	<edge id="517832833_5052594970_5052595005_5052594966" from="5052594966" to="5052594967" numLanes="1" speed="8.33" />
	<edge id="517832833_5052594970_5052595005_5052594967" from="5052594967" to="5052594968" numLanes="1" speed="8.33" />
	<edge id="517832833_5052594970_5052595005_5052594968" from="5052594968" to="5052595005" numLanes="1" speed="8.33" />
	<edge id="517830712_5052579469_5052579471_5052579469" from="5052579469" to="5052579471" numLanes="1" speed="8.33" />
	<edge id="517832847_5052595223_5052579778_5052595223" from="5052595223" to="5052595222" numLanes="1" speed="8.33" />
	<edge id="517832847_5052595223_5052579778_5052595222" from="5052595222" to="5052579778" numLanes="1" speed="8.33" />
	<edge id="517830682_5052579721_5052579743_5052579721" from="5052579721" to="5052579744" numLanes="1" speed="8.33" />
	<edge id="517830682_5052579721_5052579743_5052579744" from="5052579744" to="5052579743" numLanes="1" speed="8.33" />
	<edge id="187525383_1981943408_1981943548_1981943408" from="1981943408" to="1981943544" numLanes="1" speed="8.33" />
	<edge id="187525383_1981943408_1981943548_1981943544" from="1981943544" to="1981943548" numLanes="1" speed="8.33" />
	<edge id="465456360000_5051968246_4588661800_5051968246" from="5051968246" to="4588661791" numLanes="1" speed="8.33" />
	<edge id="465456360000_5051968246_4588661800_4588661791" from="4588661791" to="4588661799" numLanes="1" speed="8.33" />
	<edge id="465456360000_5051968246_4588661800_4588661799" from="4588661799" to="4588661800" numLanes="1" speed="8.33" />
	<edge id="517830682_5052579721_5052579746_5052579721" from="5052579721" to="5052579745" numLanes="1" speed="8.33" />
	<edge id="517830682_5052579721_5052579746_5052579745" from="5052579745" to="5052579746" numLanes="1" speed="8.33" />
	<edge id="517755711_5051968278_5051967387_5051968278" from="5051968278" to="5051968279" numLanes="1" speed="8.33" />
	<edge id="517755711_5051968278_5051967387_5051968279" from="5051968279" to="5051967387" numLanes="1" speed="8.33" />
	<edge id="517755674_5051967292_4475426399_5051967292" from="5051967292" to="4475426399" numLanes="1" speed="8.33" />
	<edge id="187525364_1981943487_1981943466_1981943487" from="1981943487" to="1981943466" numLanes="1" speed="8.33" />
	<edge id="464354525004_4585051446_5051968344_4585051446" from="4585051446" to="5051968344" numLanes="1" speed="8.33" />
	<edge id="187525388_1981943413_1981943392_1981943413" from="1981943413" to="1981943580" numLanes="1" speed="8.33" />
	<edge id="187525388_1981943413_1981943392_1981943580" from="1981943580" to="1981943392" numLanes="1" speed="8.33" />
	<edge id="517755697_4588661735_5051968280_4588661735" from="4588661735" to="5051968280" numLanes="1" speed="8.33" />
	<edge id="451778104_4485957387_4485955618_4485957387" from="4485957387" to="4485957388" numLanes="1" speed="8.33" />
	<edge id="451778104_4485957387_4485955618_4485957388" from="4485957388" to="4485955595" numLanes="1" speed="8.33" />
	<edge id="451778104_4485957387_4485955618_4485955595" from="4485955595" to="4485955596" numLanes="1" speed="8.33" />
	<edge id="451778104_4485957387_4485955618_4485955596" from="4485955596" to="4485955597" numLanes="1" speed="8.33" />
	<edge id="451778104_4485957387_4485955618_4485955597" from="4485955597" to="4485955598" numLanes="1" speed="8.33" />
	<edge id="451778104_4485957387_4485955618_4485955598" from="4485955598" to="4485955599" numLanes="1" speed="8.33" />
	<edge id="451778104_4485957387_4485955618_4485955599" from="4485955599" to="4485955600" numLanes="1" speed="8.33" />
	<edge id="451778104_4485957387_4485955618_4485955600" from="4485955600" to="4485955601" numLanes="1" speed="8.33" />
	<edge id="451778104_4485957387_4485955618_4485955601" from="4485955601" to="4485955602" numLanes="1" speed="8.33" />
	<edge id="451778104_4485957387_4485955618_4485955602" from="4485955602" to="4485955603" numLanes="1" speed="8.33" />
	<edge id="451778104_4485957387_4485955618_4485955603" from="4485955603" to="4485955618" numLanes="1" speed="8.33" />
	<edge id="517755727_5051967418_5051968324_5051967418" from="5051967418" to="5051968324" numLanes="1" speed="8.33" />
	<edge id="464354523_4594735219_4585051442_4594735219" from="4594735219" to="4585051444" numLanes="1" speed="8.33" />
	<edge id="464354523_4594735219_4585051442_4585051444" from="4585051444" to="4585051443" numLanes="1" speed="8.33" />
	<edge id="464354523_4594735219_4585051442_4585051443" from="4585051443" to="4585051442" numLanes="1" speed="8.33" />
	<edge id="53836959_4485860544_4485860545_4485860544" from="4485860544" to="4485860547" numLanes="1" speed="5.56" />
	<edge id="53836959_4485860544_4485860545_4485860547" from="4485860547" to="4485860546" numLanes="1" speed="5.56" />
	<edge id="53836959_4485860544_4485860545_4485860546" from="4485860546" to="4485860545" numLanes="1" speed="5.56" />
	<edge id="187525350_1981943499_1981943317_1981943499" from="1981943499" to="1981943317" numLanes="1" speed="8.33" />
	<edge id="187525363_1981943472_1981943371_1981943472" from="1981943472" to="1981943371" numLanes="1" speed="8.33" />
	<edge id="187525335_1981943639_1981943428_1981943639" from="1981943639" to="1981943414" numLanes="1" speed="8.33" />
	<edge id="187525335_1981943639_1981943428_1981943414" from="1981943414" to="1981943312" numLanes="1" speed="8.33" />
	<edge id="187525335_1981943639_1981943428_1981943312" from="1981943312" to="1981943428" numLanes="1" speed="8.33" />
	<edge id="517755727_5051967418_5051968327_5051967418" from="5051967418" to="5051968325" numLanes="1" speed="8.33" />
	<edge id="517755727_5051967418_5051968327_5051968325" from="5051968325" to="5051968326" numLanes="1" speed="8.33" />
	<edge id="517755727_5051967418_5051968327_5051968326" from="5051968326" to="5051968327" numLanes="1" speed="8.33" />
	<edge id="517755742_5051968349_5051968348_5051968349" from="5051968349" to="5051968348" numLanes="1" speed="8.33" />
	<edge id="517830715_5052579748_5052579493_5052579748" from="5052579748" to="5052579493" numLanes="1" speed="8.33" />
	<edge id="517755698_5051967384_5051967376_5051967384" from="5051967384" to="5051967376" numLanes="1" speed="8.33" />
	<edge id="517755676_5051967305_5051967306_5051967305" from="5051967305" to="5051967306" numLanes="1" speed="8.33" />
	<edge id="465456358_4590119250_4590119251_4590119250" from="4590119250" to="4590119251" numLanes="1" speed="8.33" />
	<edge id="53255111_3700395694_3700395695_3700395694" from="3700395694" to="4590239554" numLanes="1" speed="5.56" />
	<edge id="53255111_3700395694_3700395695_4590239554" from="4590239554" to="4590239560" numLanes="1" speed="5.56" />
	<edge id="53255111_3700395694_3700395695_4590239560" from="4590239560" to="1366644331" numLanes="1" speed="5.56" />
	<edge id="53255111_3700395694_3700395695_1366644331" from="1366644331" to="4590239559" numLanes="1" speed="5.56" />
	<edge id="53255111_3700395694_3700395695_4590239559" from="4590239559" to="4590239557" numLanes="1" speed="5.56" />
	<edge id="53255111_3700395694_3700395695_4590239557" from="4590239557" to="3700395695" numLanes="1" speed="5.56" />
	<edge id="187525337_1981943432_1981943296_1981943432" from="1981943432" to="1981943296" numLanes="1" speed="8.33" />
	<edge id="464354526000_4585051405_5051968327_4585051405" from="4585051405" to="5051968327" numLanes="1" speed="8.33" />
	<edge id="517755735_5051968332_4486179612_5051968332" from="5051968332" to="4486179612" numLanes="1" speed="8.33" />
	<edge id="517755696_5051968245_5051968270_5051968245" from="5051968245" to="5051968274" numLanes="1" speed="8.33" />
	<edge id="517755696_5051968245_5051968270_5051968274" from="5051968274" to="5051968273" numLanes="1" speed="8.33" />
	<edge id="517755696_5051968245_5051968270_5051968273" from="5051968273" to="5051968270" numLanes="1" speed="8.33" />
	<edge id="465456360003_5051968272_4588661678_5051968272" from="5051968272" to="4588661677" numLanes="1" speed="8.33" />
	<edge id="465456360003_5051968272_4588661678_4588661677" from="4588661677" to="4588661678" numLanes="1" speed="8.33" />
	<edge id="517755700_5052579451_5052579461_5052579451" from="5052579451" to="5052579461" numLanes="1" speed="8.33" />
	<edge id="187525378_1981943528_1981943304_1981943528" from="1981943528" to="1981943304" numLanes="1" speed="8.33" />
	<edge id="450624198_5051968356_5051968355_5051968356" from="5051968356" to="5051968355" numLanes="1" speed="8.33" />
	<edge id="317809022_698815592_452617139_698815592" from="698815592" to="4475426412" numLanes="1" speed="5.56" />
	<edge id="317809022_698815592_452617139_4475426412" from="4475426412" to="452617141" numLanes="1" speed="5.56" />
	<edge id="317809022_698815592_452617139_452617141" from="452617141" to="4475426414" numLanes="1" speed="5.56" />
	<edge id="317809022_698815592_452617139_4475426414" from="4475426414" to="452617139" numLanes="1" speed="5.56" />
	<edge id="465456355001_4590119042_673845213_4590119042" from="4590119042" to="4590119043" numLanes="1" speed="8.33" />
	<edge id="465456355001_4590119042_673845213_4590119043" from="4590119043" to="4590119039" numLanes="1" speed="8.33" />
	<edge id="465456355001_4590119042_673845213_4590119039" from="4590119039" to="4590119053" numLanes="1" speed="8.33" />
	<edge id="465456355001_4590119042_673845213_4590119053" from="4590119053" to="4590119054" numLanes="1" speed="8.33" />
	<edge id="465456355001_4590119042_673845213_4590119054" from="4590119054" to="4590119047" numLanes="1" speed="8.33" />
	<edge id="465456355001_4590119042_673845213_4590119047" from="4590119047" to="4590119048" numLanes="1" speed="8.33" />
	<edge id="465456355001_4590119042_673845213_4590119048" from="4590119048" to="4590119049" numLanes="1" speed="8.33" />
	<edge id="465456355001_4590119042_673845213_4590119049" from="4590119049" to="4590119050" numLanes="1" speed="8.33" />
	<edge id="465456355001_4590119042_673845213_4590119050" from="4590119050" to="4590119292" numLanes="1" speed="8.33" />
	<edge id="465456355001_4590119042_673845213_4590119292" from="4590119292" to="4590119037" numLanes="1" speed="8.33" />
	<edge id="465456355001_4590119042_673845213_4590119037" from="4590119037" to="4590119038" numLanes="1" speed="8.33" />
	<edge id="465456355001_4590119042_673845213_4590119038" from="4590119038" to="4590119218" numLanes="1" speed="8.33" />
	<edge id="465456355001_4590119042_673845213_4590119218" from="4590119218" to="4590119216" numLanes="1" speed="8.33" />
	<edge id="465456355001_4590119042_673845213_4590119216" from="4590119216" to="4590119264" numLanes="1" speed="8.33" />
	<edge id="465456355001_4590119042_673845213_4590119264" from="4590119264" to="4590119263" numLanes="1" speed="8.33" />