<?xml version="1.0" encoding="UTF-8"?>

<!-- generated on Mon Jun  8 18:03:40 2020 by Eclipse SUMO netconvert Version 1.2.0
<configuration xmlns:xsi="http://www.w3.org/2001/XMLSchema-instance" xsi:noNamespaceSchemaLocation="http://sumo.dlr.de/xsd/netconvertConfiguration.xsd">

    <input>
        <node-files value="/home/vsimrti/scenarios/ids/sumo/gualtar9/gualtar9.nod.xml"/>
        <edge-files value="/home/vsimrti/scenarios/ids/sumo/gualtar9/gualtar9.edg.xml"/>
        <connection-files value="/home/vsimrti/scenarios/ids/sumo/gualtar9/gualtar9.con.xml"/>
    </input>

    <output>
        <output-file value="/home/vsimrti/scenarios/ids/sumo/gualtar9/gualtar9.net.xml"/>
    </output>

</configuration>
-->

<net version="1.1" junctionCornerDetail="5" limitTurnSpeed="5.50" xmlns:xsi="http://www.w3.org/2001/XMLSchema-instance" xsi:noNamespaceSchemaLocation="http://sumo.dlr.de/xsd/net_file.xsd">

    <location netOffset="-687732.56,-4627595.98" convBoundary="0.00,0.00,5118.60,4049.35" origBoundary="687732.56,4627595.98,692851.15,4631645.33" projParameter="!"/>

    <edge id=":1651728631_0" function="internal">
        <lane id=":1651728631_0_0" index="0" speed="19.44" length="3.42" shape="1587.32,1432.34 1588.31,1432.46 1588.97,1432.67 1589.62,1432.96 1590.57,1433.32"/>
    </edge>
    <edge id=":1651728643_0" function="internal">
        <lane id=":1651728643_0_0" index="0" speed="25.00" length="11.33" shape="1756.35,1574.97 1752.92,1575.33 1750.49,1575.69 1748.20,1576.13 1745.17,1576.74"/>
    </edge>
    <edge id=":1651728643_1" function="internal">
        <lane id=":1651728643_1_0" index="0" speed="33.33" length="16.03" shape="1756.35,1574.97 1751.60,1575.06 1748.35,1574.56 1745.09,1573.97 1740.32,1573.78"/>
        <lane id=":1651728643_1_1" index="1" speed="33.33" length="16.03" shape="1756.07,1571.79 1751.37,1571.87 1748.16,1571.37 1744.94,1570.78 1740.23,1570.58"/>
    </edge>
    <edge id=":1651728663_0" function="internal">
        <lane id=":1651728663_0_0" index="0" speed="19.44" length="0.35" shape="1622.60,1489.09 1622.61,1488.99 1622.61,1488.91 1622.60,1488.84 1622.59,1488.74"/>
    </edge>
    <edge id=":1651728673_0" function="internal">
        <lane id=":1651728673_0_0" index="0" speed="3.65" length="4.67" shape="1631.70,1728.00 1632.70,1729.04 1632.92,1729.91 1632.36,1730.60 1631.02,1731.13"/>
    </edge>
    <edge id=":1651728692_0" function="internal">
        <lane id=":1651728692_0_0" index="0" speed="18.06" length="4.01" shape="1349.70,1809.74 1348.47,1810.26 1347.63,1810.67 1346.77,1810.95 1345.46,1811.10"/>
        <lane id=":1651728692_0_1" index="1" speed="18.06" length="4.01" shape="1348.57,1806.74 1347.62,1807.17 1346.97,1807.52 1346.30,1807.77 1345.29,1807.90"/>
    </edge>
    <edge id=":1651728701_0" function="internal">
        <lane id=":1651728701_0_0" index="0" speed="19.44" length="0.25" shape="1585.69,1577.12 1585.80,1576.90"/>
    </edge>
    <edge id=":1651728710_0" function="internal">
        <lane id=":1651728710_0_0" index="0" speed="19.44" length="0.26" shape="1572.14,1445.07 1572.06,1445.07 1572.01,1445.07 1571.95,1445.07 1571.88,1445.08"/>
    </edge>
    <edge id=":1651728714_0" function="internal">
        <lane id=":1651728714_0_0" index="0" speed="13.89" length="0.94" shape="1426.59,1808.74 1426.33,1808.85 1426.15,1808.91 1425.97,1808.96 1425.70,1809.02"/>
    </edge>
    <edge id=":1651728714_1" function="internal">
        <lane id=":1651728714_1_0" index="0" speed="13.89" length="0.31" shape="1425.03,1805.89 1425.12,1805.87 1425.18,1805.86 1425.24,1805.83 1425.32,1805.80"/>
    </edge>
    <edge id=":1651728716_0" function="internal">
        <lane id=":1651728716_0_0" index="0" speed="19.44" length="0.28" shape="1564.96,1615.55 1565.01,1615.48 1565.04,1615.43 1565.07,1615.38 1565.11,1615.31"/>
    </edge>
    <edge id=":1651728718_0" function="internal">
        <lane id=":1651728718_0_0" index="0" speed="14.71" length="0.96" shape="1314.40,1792.51 1314.23,1792.12 1314.13,1791.84 1314.06,1791.55 1314.00,1791.13"/>
        <lane id=":1651728718_0_1" index="1" speed="18.06" length="0.96" shape="1317.31,1791.16 1317.25,1791.03 1317.22,1790.94 1317.20,1790.85 1317.18,1790.71"/>
    </edge>
    <edge id=":1651728777_0" function="internal">
        <lane id=":1651728777_0_0" index="0" speed="33.33" length="0.29" shape="2083.07,1507.90 2082.77,1507.97"/>
        <lane id=":1651728777_0_1" index="1" speed="33.33" length="0.29" shape="2082.25,1504.80 2081.98,1504.87"/>
    </edge>
    <edge id=":1651728793_0" function="internal">
        <lane id=":1651728793_0_0" index="0" speed="19.44" length="0.45" shape="1530.64,1492.97 1530.63,1493.10 1530.62,1493.19 1530.63,1493.28 1530.66,1493.41"/>
    </edge>
    <edge id=":1651728902_0" function="internal">
        <lane id=":1651728902_0_0" index="0" speed="23.51" length="8.23" shape="1574.65,1537.11 1576.83,1538.19 1578.39,1538.80 1580.03,1539.16 1582.45,1539.49"/>
    </edge>
    <edge id=":1651728902_1" function="internal">
        <lane id=":1651728902_1_0" index="0" speed="33.33" length="8.45" shape="1574.68,1537.00 1577.00,1537.73 1578.53,1538.41 1580.09,1539.01 1582.45,1539.49"/>
        <lane id=":1651728902_1_1" index="1" speed="33.33" length="8.45" shape="1573.74,1540.06 1576.21,1540.83 1577.85,1541.54 1579.51,1542.17 1582.04,1542.66"/>
    </edge>
    <edge id=":1651728918_0" function="internal">
        <lane id=":1651728918_0_0" index="0" speed="8.35" length="10.20" shape="1366.30,1805.72 1363.55,1804.70 1361.02,1804.42 1358.73,1804.87 1356.65,1806.06"/>
    </edge>
    <edge id=":1651728918_1" function="internal">
        <lane id=":1651728918_1_0" index="0" speed="5.93" length="8.12" shape="1365.01,1796.47 1364.21,1798.30 1364.39,1799.97 1365.55,1801.49 1367.69,1802.84"/>
    </edge>
    <edge id=":1651728918_2" function="internal">
        <lane id=":1651728918_2_0" index="0" speed="18.06" length="10.58" shape="1365.01,1796.47 1362.91,1799.64 1361.37,1801.76 1359.56,1803.63 1356.65,1806.06"/>
        <lane id=":1651728918_2_1" index="1" speed="18.06" length="10.58" shape="1360.40,1797.59 1358.98,1799.61 1357.88,1800.89 1356.60,1802.02 1354.66,1803.55"/>
    </edge>
    <edge id=":1651728950_0" function="internal">
        <lane id=":1651728950_0_0" index="0" speed="13.89" length="0.45" shape="1394.02,1812.15 1393.89,1812.15 1393.80,1812.15 1393.70,1812.14 1393.57,1812.12"/>
    </edge>
    <edge id=":1651728950_1" function="internal">
        <lane id=":1651728950_1_0" index="0" speed="13.89" length="0.15" shape="1393.96,1808.94 1394.00,1808.95 1394.03,1808.95 1394.06,1808.95 1394.11,1808.96"/>
    </edge>
    <edge id=":1651728973_0" function="internal">
        <lane id=":1651728973_0_0" index="0" speed="18.06" length="3.96" shape="1313.27,1785.69 1313.12,1784.38 1313.11,1783.48 1313.23,1782.58 1313.46,1781.28"/>
        <lane id=":1651728973_0_1" index="1" speed="18.06" length="3.96" shape="1316.45,1785.29 1316.33,1784.27 1316.33,1783.57 1316.42,1782.86 1316.61,1781.85"/>
    </edge>
    <edge id=":1651728973_2" function="internal">
        <lane id=":1651728973_2_0" index="0" speed="18.75" length="4.07" shape="1312.59,1785.77 1313.46,1781.28"/>
        <lane id=":1651728973_2_1" index="1" speed="18.75" length="4.07" shape="1315.94,1785.35 1316.61,1781.85"/>
    </edge>
    <edge id=":1651728977_0" function="internal">
        <lane id=":1651728977_0_0" index="0" speed="19.44" length="0.24" shape="1609.28,1457.60 1609.23,1457.55 1609.19,1457.51 1609.16,1457.48 1609.10,1457.44"/>
    </edge>
    <edge id=":1651729005_0" function="internal">
        <lane id=":1651729005_0_0" index="0" speed="33.33" length="0.24" shape="1472.73,1529.28 1472.40,1529.16"/>
        <lane id=":1651729005_0_1" index="1" speed="33.33" length="0.24" shape="1473.77,1526.26 1473.66,1526.21"/>
    </edge>
    <edge id=":1651729008_0" function="internal">
        <lane id=":1651729008_0_0" index="0" speed="18.06" length="4.03" shape="1367.80,1786.80 1367.77,1788.12 1367.56,1789.01 1367.23,1789.89 1366.80,1791.17"/>
        <lane id=":1651729008_0_1" index="1" speed="18.06" length="4.03" shape="1364.61,1786.91 1364.56,1787.94 1364.37,1788.62 1364.07,1789.30 1363.72,1790.29"/>
    </edge>
    <edge id=":1651729038_0" function="internal">
        <lane id=":1651729038_0_0" index="0" speed="16.67" length="0.10" shape="1598.94,1623.00 1598.94,1623.00"/>
    </edge>
    <edge id=":1651729045_0" function="internal">
        <lane id=":1651729045_0_0" index="0" speed="19.44" length="0.10" shape="1529.88,1447.03 1529.95,1446.99"/>
    </edge>
    <edge id=":1651729047_0" function="internal">
        <lane id=":1651729047_0_0" index="0" speed="19.44" length="0.21" shape="1427.05,1472.51 1427.12,1472.53 1427.16,1472.53 1427.20,1472.54 1427.27,1472.54"/>
    </edge>
    <edge id=":1651729049_0" function="internal">
        <lane id=":1651729049_0_0" index="0" speed="19.44" length="3.49" shape="1633.08,1473.99 1633.40,1474.96 1633.47,1475.66 1633.45,1476.39 1633.50,1477.42"/>
    </edge>
    <edge id=":1651729050_0" function="internal">
        <lane id=":1651729050_0_0" index="0" speed="16.67" length="0.53" shape="1619.82,1600.96 1619.68,1601.03 1619.59,1601.09 1619.51,1601.16 1619.40,1601.28"/>
    </edge>
    <edge id=":1651729071_0" function="internal">
        <lane id=":1651729071_0_0" index="0" speed="18.06" length="4.06" shape="1322.64,1763.85 1323.60,1762.88 1324.24,1762.18 1324.96,1761.60 1326.14,1760.97"/>
        <lane id=":1651729071_0_1" index="1" speed="17.91" length="4.06" shape="1324.80,1766.21 1325.53,1765.45 1326.00,1764.88 1326.53,1764.39 1327.44,1763.90"/>
    </edge>
    <edge id=":1651729072_0" function="internal">
        <lane id=":1651729072_0_0" index="0" speed="13.89" length="0.52" shape="1595.84,1723.36 1595.69,1723.33 1595.59,1723.32 1595.48,1723.32 1595.33,1723.34"/>
    </edge>
    <edge id=":1651729072_1" function="internal">
        <lane id=":1651729072_1_0" index="0" speed="12.15" length="1.55" shape="1594.95,1720.16 1595.41,1720.11 1595.72,1720.10 1596.04,1720.13 1596.49,1720.22"/>
    </edge>
    <edge id=":1651729073_0" function="internal">
        <lane id=":1651729073_0_0" index="0" speed="13.89" length="0.17" shape="1612.68,1726.84 1612.52,1726.80"/>
    </edge>
    <edge id=":1651729073_1" function="internal">
        <lane id=":1651729073_1_0" index="0" speed="13.89" length="0.29" shape="1613.17,1723.67 1613.45,1723.73"/>
    </edge>
    <edge id=":1651729074_0" function="internal">
        <lane id=":1651729074_0_0" index="0" speed="16.67" length="0.35" shape="1648.31,1586.01 1648.21,1586.04 1648.14,1586.06 1648.08,1586.09 1647.99,1586.14"/>
    </edge>
    <edge id=":1651729075_0" function="internal">
        <lane id=":1651729075_0_0" index="0" speed="19.44" length="0.32" shape="1497.43,1560.61 1497.39,1560.53 1497.36,1560.47 1497.32,1560.42 1497.26,1560.35"/>
    </edge>
    <edge id=":1651729079_0" function="internal">
        <lane id=":1651729079_0_0" index="0" speed="19.44" length="0.61" shape="1616.38,1445.04 1616.53,1445.13 1616.63,1445.21 1616.72,1445.30 1616.82,1445.45"/>
    </edge>
    <edge id=":1651729130_0" function="internal">
        <lane id=":1651729130_0_0" index="0" speed="12.82" length="2.73" shape="1365.70,1795.02 1365.57,1795.45 1365.46,1795.74 1365.31,1796.01 1365.07,1796.38"/>
        <lane id=":1651729130_0_1" index="1" speed="18.06" length="2.73" shape="1362.62,1794.14 1362.22,1795.22 1361.77,1795.88 1361.22,1796.49 1360.51,1797.42"/>
    </edge>
    <edge id=":1651729165_0" function="internal">
        <lane id=":1651729165_0_0" index="0" speed="19.44" length="0.40" shape="1471.97,1534.29 1471.88,1534.21 1471.81,1534.16 1471.74,1534.11 1471.64,1534.06"/>
    </edge>
    <edge id=":1651729171_0" function="internal">
        <lane id=":1651729171_0_0" index="0" speed="19.44" length="0.68" shape="1533.19,1506.59 1533.23,1506.79 1533.27,1506.92 1533.34,1507.04 1533.45,1507.21"/>
    </edge>
    <edge id=":1651729190_0" function="internal">
        <lane id=":1651729190_0_0" index="0" speed="19.44" length="3.41" shape="1625.08,1456.64 1625.72,1457.43 1626.20,1457.94 1626.61,1458.50 1627.05,1459.40"/>
    </edge>
    <edge id=":1651729194_0" function="internal">
        <lane id=":1651729194_0_0" index="0" speed="19.44" length="0.43" shape="1537.79,1647.47 1537.90,1647.40 1537.97,1647.35 1538.03,1647.29 1538.12,1647.20"/>
    </edge>
    <edge id=":1651729204_0" function="internal">
        <lane id=":1651729204_0_0" index="0" speed="19.44" length="0.39" shape="1493.86,1655.05 1493.94,1654.96 1494.00,1654.90 1494.04,1654.84 1494.11,1654.74"/>
    </edge>
    <edge id=":1651729210_0" function="internal">
        <lane id=":1651729210_0_0" index="0" speed="19.44" length="0.51" shape="1532.06,1478.07 1532.00,1478.21 1531.97,1478.31 1531.95,1478.41 1531.94,1478.56"/>
    </edge>
    <edge id=":1651729237_0" function="internal">
        <lane id=":1651729237_0_0" index="0" speed="13.89" length="0.31" shape="1623.27,1729.44 1622.97,1729.37"/>
    </edge>
    <edge id=":1651729237_1" function="internal">
        <lane id=":1651729237_1_0" index="0" speed="13.89" length="0.22" shape="1623.73,1726.26 1623.95,1726.31"/>
    </edge>
    <edge id=":1651729245_0" function="internal">
        <lane id=":1651729245_0_0" index="0" speed="19.44" length="0.40" shape="1604.52,1437.74 1604.63,1437.78 1604.71,1437.81 1604.78,1437.85 1604.88,1437.91"/>
    </edge>
    <edge id=":1651729258_0" function="internal">
        <lane id=":1651729258_0_0" index="0" speed="16.67" length="0.36" shape="1670.80,1579.94 1670.70,1579.94 1670.62,1579.95 1670.55,1579.97 1670.45,1579.99"/>
    </edge>
    <edge id=":1651729262_0" function="internal">
        <lane id=":1651729262_0_0" index="0" speed="19.44" length="0.77" shape="1549.72,1450.60 1549.51,1450.68 1549.37,1450.75 1549.25,1450.85 1549.09,1451.02"/>
    </edge>
    <edge id=":1651729268_0" function="internal">
        <lane id=":1651729268_0_0" index="0" speed="16.67" length="3.23" shape="1527.84,1667.28 1527.08,1667.86 1526.57,1668.28 1526.04,1668.67 1525.21,1669.14"/>
    </edge>
    <edge id=":1651729322_0" function="internal">
        <lane id=":1651729322_0_0" index="0" speed="19.44" length="0.47" shape="1601.01,1451.13 1600.90,1451.05 1600.82,1451.00 1600.73,1450.96 1600.61,1450.90"/>
    </edge>
    <edge id=":1651729328_0" function="internal">
        <lane id=":1651729328_0_0" index="0" speed="19.44" length="0.57" shape="1586.48,1445.39 1586.32,1445.33 1586.21,1445.30 1586.09,1445.29 1585.92,1445.29"/>
    </edge>
    <edge id=":1651729342_0" function="internal">
        <lane id=":1651729342_0_0" index="0" speed="18.75" length="10.71" shape="1342.22,1757.20 1345.22,1756.78 1347.16,1755.95 1349.02,1754.80 1351.80,1753.40"/>
        <lane id=":1651729342_0_1" index="1" speed="18.75" length="10.71" shape="1342.22,1757.20 1345.50,1757.25 1347.79,1757.46 1350.01,1757.33 1353.04,1756.35"/>
    </edge>
    <edge id=":1651729342_2" function="internal">
        <lane id=":1651729342_2_0" index="0" speed="18.06" length="11.12" shape="1342.22,1757.20 1345.65,1757.27 1347.95,1757.88 1350.18,1758.93 1353.40,1760.31"/>
        <lane id=":1651729342_2_1" index="1" speed="18.06" length="11.12" shape="1342.39,1760.40 1345.43,1760.49 1347.46,1761.08 1349.42,1762.06 1352.28,1763.31"/>
    </edge>
    <edge id=":1651729372_0" function="internal">
        <lane id=":1651729372_0_0" index="0" speed="18.06" length="4.07" shape="1313.91,1778.79 1314.09,1777.44 1314.18,1776.49 1314.39,1775.59 1314.97,1774.37"/>
        <lane id=":1651729372_0_1" index="1" speed="17.63" length="4.07" shape="1317.06,1779.36 1317.18,1778.31 1317.21,1777.57 1317.34,1776.86 1317.77,1775.92"/>
    </edge>
    <edge id=":1651729393_0" function="internal">
        <lane id=":1651729393_0_0" index="0" speed="13.89" length="0.38" shape="1548.48,1733.83 1548.37,1733.86 1548.30,1733.89 1548.23,1733.93 1548.13,1733.98"/>
    </edge>
    <edge id=":1651729393_1" function="internal">
        <lane id=":1651729393_1_0" index="0" speed="13.89" length="1.15" shape="1546.49,1731.24 1546.79,1731.06 1546.99,1730.96 1547.21,1730.87 1547.54,1730.77"/>
    </edge>
    <edge id=":1651729395_0" function="internal">
        <lane id=":1651729395_0_0" index="0" speed="19.44" length="0.28" shape="1508.05,1586.58 1508.04,1586.49 1508.03,1586.44 1508.01,1586.38 1507.99,1586.31"/>
    </edge>
    <edge id=":1651729399_0" function="internal">
        <lane id=":1651729399_0_0" index="0" speed="26.38" length="8.63" shape="1412.62,1500.85 1410.34,1499.97 1408.50,1500.09 1406.64,1500.24 1404.31,1499.42"/>
    </edge>
    <edge id=":1651729399_1" function="internal">
        <lane id=":1651729399_1_0" index="0" speed="33.33" length="8.00" shape="1411.61,1503.13 1409.37,1502.17 1407.86,1501.46 1406.40,1500.66 1404.31,1499.42"/>
        <lane id=":1651729399_1_1" index="1" speed="33.33" length="8.00" shape="1412.91,1500.21 1410.78,1499.29 1409.34,1498.62 1407.95,1497.86 1405.96,1496.68"/>
    </edge>
    <edge id=":1651729400_0" function="internal">
        <lane id=":1651729400_0_0" index="0" speed="19.44" length="0.37" shape="1510.59,1605.04 1510.60,1604.93 1510.60,1604.85 1510.60,1604.78 1510.58,1604.67"/>
    </edge>
    <edge id=":1651729419_0" function="internal">
        <lane id=":1651729419_0_0" index="0" speed="9.33" length="6.66" shape="1361.26,1448.49 1362.93,1449.58 1364.15,1450.33 1365.44,1450.67 1367.33,1450.54"/>
    </edge>
    <edge id=":1651729419_1" function="internal">
        <lane id=":1651729419_1_0" index="0" speed="33.33" length="2.96" shape="1361.26,1448.49 1363.80,1449.99"/>
        <lane id=":1651729419_1_1" index="1" speed="33.33" length="2.96" shape="1359.62,1451.24 1362.19,1452.75"/>
    </edge>
    <edge id=":1651729424_0" function="internal">
        <lane id=":1651729424_0_0" index="0" speed="19.44" length="0.31" shape="1448.99,1474.42 1449.08,1474.43 1449.15,1474.43 1449.21,1474.43 1449.30,1474.42"/>
    </edge>
    <edge id=":1651729436_0" function="internal">
        <lane id=":1651729436_0_0" index="0" speed="19.44" length="0.44" shape="1504.84,1637.53 1504.91,1637.42 1504.95,1637.34 1504.98,1637.25 1505.02,1637.12"/>
    </edge>
    <edge id=":1651729465_0" function="internal">
        <lane id=":1651729465_0_0" index="0" speed="33.33" length="0.15" shape="1896.69,1554.88 1896.49,1554.93"/>
        <lane id=":1651729465_0_1" index="1" speed="33.33" length="0.15" shape="1895.90,1551.78 1895.84,1551.80"/>
    </edge>
    <edge id=":1651729488_0" function="internal">
        <lane id=":1651729488_0_0" index="0" speed="16.67" length="1.70" shape="1744.98,1576.78 1744.48,1576.89 1744.15,1576.98 1743.81,1577.05 1743.31,1577.09"/>
    </edge>
    <edge id=":1651729498_0" function="internal">
        <lane id=":1651729498_0_0" index="0" speed="19.44" length="0.28" shape="1503.30,1571.74 1503.27,1571.66 1503.25,1571.61 1503.23,1571.56 1503.19,1571.48"/>
    </edge>
    <edge id=":1651729508_0" function="internal">
        <lane id=":1651729508_0_0" index="0" speed="19.44" length="0.10" shape="1482.85,1665.68 1482.79,1665.74"/>
    </edge>
    <edge id=":1651729532_0" function="internal">
        <lane id=":1651729532_0_0" index="0" speed="19.44" length="3.20" shape="1624.66,1527.18 1624.32,1528.06 1624.03,1528.65 1623.70,1529.21 1623.26,1530.05"/>
    </edge>
    <edge id=":1651729568_0" function="internal">
        <lane id=":1651729568_0_0" index="0" speed="19.44" length="0.11" shape="1612.79,1522.73 1612.83,1522.63"/>
    </edge>
    <edge id=":1651729583_0" function="internal">
        <lane id=":1651729583_0_0" index="0" speed="33.33" length="0.30" shape="2160.98,1487.42 2160.69,1487.50"/>
        <lane id=":1651729583_0_1" index="1" speed="33.33" length="0.30" shape="2160.15,1484.33 2159.87,1484.41"/>
    </edge>
    <edge id=":1651729627_0" function="internal">
        <lane id=":1651729627_0_0" index="0" speed="33.33" length="3.30" shape="1722.10,1574.28 1721.08,1574.33 1720.38,1574.38 1719.68,1574.40 1718.67,1574.36"/>
        <lane id=":1651729627_0_1" index="1" speed="33.33" length="3.30" shape="1722.02,1571.08 1721.08,1571.13 1720.44,1571.18 1719.80,1571.20 1718.87,1571.16"/>
    </edge>
    <edge id=":1651729649_0" function="internal">
        <lane id=":1651729649_0_0" index="0" speed="15.07" length="0.95" shape="1323.53,1805.66 1323.17,1805.43 1322.93,1805.26 1322.72,1805.06 1322.44,1804.75"/>
        <lane id=":1651729649_0_1" index="1" speed="18.06" length="0.95" shape="1325.19,1802.92 1325.07,1802.85 1324.99,1802.79 1324.92,1802.72 1324.82,1802.62"/>
    </edge>
    <edge id=":1651729738_0" function="internal">
        <lane id=":1651729738_0_0" index="0" speed="16.67" length="0.10" shape="1581.93,1641.07 1581.87,1641.14"/>
    </edge>
    <edge id=":1651729772_0" function="internal">
        <lane id=":1651729772_0_0" index="0" speed="18.05" length="3.14" shape="1598.85,1579.83 1597.24,1582.53"/>
    </edge>
    <edge id=":1651729790_0" function="internal">
        <lane id=":1651729790_0_0" index="0" speed="19.44" length="0.30" shape="1508.84,1623.89 1508.86,1623.80 1508.88,1623.74 1508.89,1623.68 1508.90,1623.59"/>
    </edge>
    <edge id=":1651729793_0" function="internal">
        <lane id=":1651729793_0_0" index="0" speed="13.89" length="1.14" shape="1409.78,1812.44 1409.45,1812.51 1409.22,1812.54 1408.98,1812.55 1408.64,1812.54"/>
    </edge>
    <edge id=":1651729793_1" function="internal">
        <lane id=":1651729793_1_0" index="0" speed="13.89" length="0.38" shape="1408.73,1809.34 1408.84,1809.35 1408.92,1809.34 1409.00,1809.33 1409.11,1809.31"/>
    </edge>
    <edge id=":1651729800_0" function="internal">
        <lane id=":1651729800_0_0" index="0" speed="19.44" length="0.55" shape="1539.45,1461.32 1539.34,1461.44 1539.27,1461.53 1539.21,1461.62 1539.15,1461.77"/>
    </edge>
    <edge id=":1651729842_0" function="internal">
        <lane id=":1651729842_0_0" index="0" speed="18.06" length="4.01" shape="1354.70,1807.61 1353.62,1808.36 1352.78,1808.72 1351.88,1808.98 1350.61,1809.39"/>
        <lane id=":1651729842_0_1" index="1" speed="18.06" length="4.01" shape="1352.71,1805.10 1351.86,1805.67 1351.19,1805.92 1350.48,1806.09 1349.48,1806.40"/>
    </edge>
    <edge id=":1651729860_0" function="internal">
        <lane id=":1651729860_0_0" index="0" speed="13.89" length="0.92" shape="1446.23,1800.17 1446.00,1800.32 1445.84,1800.42 1445.68,1800.50 1445.43,1800.61"/>
    </edge>
    <edge id=":1651729860_1" function="internal">
        <lane id=":1651729860_1_0" index="0" speed="13.89" length="0.31" shape="1444.16,1797.67 1444.24,1797.63 1444.30,1797.61 1444.35,1797.57 1444.43,1797.52"/>
    </edge>
    <edge id=":1651729933_0" function="internal">
        <lane id=":1651729933_0_0" index="0" speed="19.44" length="0.36" shape="1620.71,1476.80 1620.70,1476.69 1620.68,1476.62 1620.66,1476.55 1620.62,1476.46"/>
    </edge>
    <edge id=":1651729965_0" function="internal">
        <lane id=":1651729965_0_0" index="0" speed="19.44" length="0.25" shape="1486.82,1547.61 1486.77,1547.55 1486.74,1547.52 1486.70,1547.48 1486.65,1547.43"/>
    </edge>
    <edge id=":1651729993_0" function="internal">
        <lane id=":1651729993_0_0" index="0" speed="13.89" length="0.29" shape="1574.65,1725.78 1574.57,1725.79 1574.51,1725.80 1574.45,1725.82 1574.37,1725.84"/>
    </edge>
    <edge id=":1651729993_1" function="internal">
        <lane id=":1651729993_1_0" index="0" speed="13.89" length="0.87" shape="1573.43,1722.78 1573.67,1722.71 1573.85,1722.66 1574.02,1722.64 1574.28,1722.60"/>
    </edge>
    <edge id=":1651729999_0" function="internal">
        <lane id=":1651729999_0_0" index="0" speed="19.44" length="0.12" shape="1525.31,1655.32 1525.41,1655.26"/>
    </edge>
    <edge id=":1651730005_0" function="internal">
        <lane id=":1651730005_0_0" index="0" speed="18.06" length="4.07" shape="1318.49,1767.98 1319.22,1766.85 1319.87,1766.18 1320.62,1765.61 1321.67,1764.73"/>
        <lane id=":1651730005_0_1" index="1" speed="17.62" length="4.07" shape="1321.30,1769.52 1321.87,1768.66 1322.40,1768.18 1323.01,1767.76 1323.83,1767.09"/>
    </edge>
    <edge id=":1651730007_0" function="internal">
        <lane id=":1651730007_0_0" index="0" speed="19.44" length="0.10" shape="1568.34,1533.89 1568.41,1533.92"/>
    </edge>
    <edge id=":1651730008_0" function="internal">
        <lane id=":1651730008_0_0" index="0" speed="18.06" length="3.97" shape="1333.47,1810.42 1332.18,1810.15 1331.27,1810.00 1330.41,1809.74 1329.26,1809.13"/>
        <lane id=":1651730008_0_1" index="1" speed="18.06" length="3.97" shape="1334.26,1807.32 1333.24,1807.12 1332.51,1807.03 1331.83,1806.86 1330.92,1806.39"/>
    </edge>
    <edge id=":1651730051_0" function="internal">
        <lane id=":1651730051_0_0" index="0" speed="19.44" length="0.38" shape="1540.15,1516.75 1540.21,1516.84 1540.26,1516.90 1540.32,1516.96 1540.40,1517.03"/>
    </edge>
    <edge id=":1651730077_0" function="internal">
        <lane id=":1651730077_0_0" index="0" speed="19.44" length="0.53" shape="1621.76,1501.14 1621.82,1501.00 1621.85,1500.89 1621.87,1500.79 1621.88,1500.63"/>
    </edge>
    <edge id=":1651730097_0" function="internal">
        <lane id=":1651730097_0_0" index="0" speed="19.44" length="0.27" shape="1500.55,1462.83 1500.62,1462.80 1500.67,1462.78 1500.72,1462.76 1500.79,1462.72"/>
    </edge>
    <edge id=":1651730114_0" function="internal">
        <lane id=":1651730114_0_0" index="0" speed="13.89" length="0.10" shape="1508.58,1757.62 1508.66,1757.57"/>
    </edge>
    <edge id=":1651730114_1" function="internal">
        <lane id=":1651730114_1_0" index="0" speed="13.89" length="0.10" shape="1506.85,1754.92 1506.93,1754.87"/>
    </edge>
    <edge id=":1651730138_0" function="internal">
        <lane id=":1651730138_0_0" index="0" speed="33.33" length="0.30" shape="1266.74,1417.00 1266.49,1416.86"/>
        <lane id=":1651730138_0_1" index="1" speed="33.33" length="0.30" shape="1268.39,1414.26 1268.12,1414.10"/>
    </edge>
    <edge id=":1651730141_0" function="internal">
        <lane id=":1651730141_0_0" index="0" speed="19.44" length="0.41" shape="1556.25,1434.51 1556.36,1434.46 1556.43,1434.43 1556.51,1434.41 1556.63,1434.38"/>
    </edge>
    <edge id=":1651730161_0" function="internal">
        <lane id=":1651730161_0_0" index="0" speed="16.67" length="3.12" shape="1572.50,1652.43 1570.50,1654.83"/>
    </edge>
    <edge id=":1651730164_0" function="internal">
        <lane id=":1651730164_0_0" index="0" speed="8.87" length="1.31" shape="1354.27,1760.64 1354.81,1760.85 1355.17,1761.03 1355.49,1761.27 1355.92,1761.67"/>
        <lane id=":1651730164_0_1" index="1" speed="18.06" length="1.31" shape="1353.15,1763.63 1353.33,1763.70 1353.45,1763.77 1353.56,1763.85 1353.70,1763.98"/>
    </edge>
    <edge id=":1651730177_0" function="internal">
        <lane id=":1651730177_0_0" index="0" speed="11.51" length="1.59" shape="1375.58,1809.93 1375.11,1809.87 1374.79,1809.80 1374.49,1809.69 1374.06,1809.49"/>
    </edge>
    <edge id=":1651730177_1" function="internal">
        <lane id=":1651730177_1_0" index="0" speed="13.89" length="0.53" shape="1375.46,1806.61 1375.60,1806.67 1375.70,1806.71 1375.81,1806.73 1375.96,1806.75"/>
    </edge>
    <edge id=":1651730181_0" function="internal">
        <lane id=":1651730181_0_0" index="0" speed="15.30" length="0.95" shape="1317.98,1799.75 1317.70,1799.43 1317.53,1799.20 1317.38,1798.95 1317.20,1798.57"/>
        <lane id=":1651730181_0_1" index="1" speed="18.06" length="0.95" shape="1320.37,1797.62 1320.27,1797.52 1320.22,1797.44 1320.17,1797.35 1320.11,1797.23"/>
    </edge>
    <edge id=":1651730185_0" function="internal">
        <lane id=":1651730185_0_0" index="0" speed="14.58" length="3.00" shape="1367.61,1778.39 1367.61,1781.29"/>
        <lane id=":1651730185_0_1" index="1" speed="14.58" length="3.00" shape="1364.41,1778.30 1364.41,1781.40"/>
    </edge>
    <edge id=":1651730185_2" function="internal">
        <lane id=":1651730185_2_0" index="0" speed="16.35" length="4.14" shape="1366.61,1776.72 1367.14,1778.02 1367.42,1778.94 1367.55,1779.89 1367.61,1781.29"/>
        <lane id=":1651730185_2_1" index="1" speed="14.24" length="4.14" shape="1363.66,1777.96 1364.05,1778.93 1364.27,1779.63 1364.36,1780.35 1364.41,1781.40"/>
    </edge>
    <edge id=":1651730187_0" function="internal">
        <lane id=":1651730187_0_0" index="0" speed="19.44" length="0.31" shape="1560.70,1446.75 1560.61,1446.77 1560.55,1446.78 1560.49,1446.80 1560.41,1446.83"/>
    </edge>
    <edge id=":1651730188_0" function="internal">
        <lane id=":1651730188_0_0" index="0" speed="19.44" length="0.35" shape="1474.59,1471.62 1474.69,1471.61 1474.76,1471.60 1474.83,1471.58 1474.93,1471.55"/>
    </edge>
    <edge id=":1651730190_0" function="internal">
        <lane id=":1651730190_0_0" index="0" speed="19.44" length="0.47" shape="1549.87,1525.34 1549.98,1525.43 1550.05,1525.49 1550.13,1525.53 1550.26,1525.59"/>
    </edge>
    <edge id=":1651730200_0" function="internal">
        <lane id=":1651730200_0_0" index="0" speed="33.33" length="3.20" shape="2247.69,1463.71 2244.56,1464.76"/>
        <lane id=":1651730200_0_1" index="1" speed="33.33" length="3.20" shape="2246.66,1460.68 2243.72,1461.67"/>
    </edge>
    <edge id=":1651730202_0" function="internal">
        <lane id=":1651730202_0_0" index="0" speed="19.44" length="0.61" shape="1616.04,1464.94 1615.97,1464.77 1615.92,1464.66 1615.84,1464.56 1615.72,1464.43"/>
    </edge>
    <edge id=":1651730210_0" function="internal">
        <lane id=":1651730210_0_0" index="0" speed="19.44" length="3.41" shape="1568.84,1432.07 1569.82,1431.84 1570.50,1431.63 1571.17,1431.50 1572.17,1431.49"/>
    </edge>
    <edge id=":1651730222_0" function="internal">
        <lane id=":1651730222_0_0" index="0" speed="33.33" length="3.21" shape="1647.97,1569.83 1644.66,1569.60"/>