<nodes>
	<node id="1726368137" x="688157.6132" y="4630864.5325" z="0.0000" type="priority" />
	<node id="1726368139" x="689220.9799" y="4629272.5124" z="0.0000" type="priority" />
	<node id="1726349612" x="687808.8707" y="4631327.7042" z="0.0000" type="priority" />
	<node id="1726368132" x="688861.1901" y="4629739.0141" z="0.0000" type="priority" />
	<node id="1726368133" x="688999.8878" y="4629468.2145" z="0.0000" type="priority" />
	<node id="1651729322" x="689334.1805" y="4629045.5655" z="0.0000" type="priority" />
	<node id="1651729568" x="689346.8264" y="4629119.3242" z="0.0000" type="priority" />
	<node id="1651729204" x="689227.8124" y="4629251.9043" z="0.0000" type="priority" />
	<node id="1667482191" x="690448.9752" y="4628604.2688" z="0.0000" type="priority" />
	<node id="1651729328" x="689319.0779" y="4629039.6760" z="0.0000" type="priority" />
	<node id="1667482072" x="688803.3661" y="4628879.8412" z="0.0000" type="priority" />
	<node id="1726349626" x="687964.0618" y="4631041.3997" z="0.0000" type="priority" />
	<node id="1726368126" x="689102.2038" y="4629343.8665" z="0.0000" type="priority" />
	<node id="1726368129" x="688712.4942" y="4630032.3629" z="0.0000" type="priority" />
	<node id="1726349503" x="687889.2526" y="4631113.4078" z="0.0000" type="priority" />
	<node id="1726349504" x="687908.2414" y="4631086.8076" z="0.0000" type="priority" />
	<node id="1726349625" x="687836.1074" y="4631217.9649" z="0.0000" type="priority" />
	<node id="252613673" x="687732.5570" y="4631645.3313" z="0.0000" type="priority" />
	<node id="1667481557" x="690510.4897" y="4628499.5070" z="0.0000" type="priority" />
	<node id="1667481679" x="690044.5202" y="4629019.3693" z="0.0000" type="priority" />
	<node id="1651729790" x="689243.0179" y="4629220.0180" z="0.0000" type="priority" />
	<node id="1651729793" x="689141.6261" y="4629406.9340" z="0.0000" type="priority" />
	<node id="1651729436" x="689238.9892" y="4629233.9781" z="0.0000" type="priority" />
	<node id="1667482087" x="691940.1035" y="4627941.3001" z="0.0000" type="priority" />
	<node id="1651728902" x="689318.7168" y="4629140.7902" z="0.0000" type="priority" />
	<node id="1726368117" x="688793.2740" y="4629880.2638" z="0.0000" type="priority" />
	<node id="1726349711" x="687783.1813" y="4631535.9628" z="0.0000" type="priority" />
	<node id="1726368118" x="688382.4519" y="4630387.1039" z="0.0000" type="priority" />
	<node id="1667481647" x="692282.2241" y="4627792.3515" z="0.0000" type="priority" />
	<node id="1726368111" x="689005.1463" y="4629471.8537" z="0.0000" type="priority" />
	<node id="1726368112" x="689045.7912" y="4629397.6844" z="0.0000" type="priority" />
	<node id="1651728692" x="689077.7569" y="4629402.2865" z="0.0000" type="priority" />
	<node id="1651730097" x="689233.8734" y="4629060.2399" z="0.0000" type="priority" />
	<node id="1667482173" x="690848.3422" y="4628125.1843" z="0.0000" type="priority" />
	<node id="1651729424" x="689181.7229" y="4629072.0248" z="0.0000" type="priority" />
	<node id="1726349719" x="687850.4275" y="4631183.6527" z="0.0000" type="priority" />
	<node id="1726349604" x="687740.9728" y="4631631.9193" z="0.0000" type="priority" />
	<node id="1726368104" x="689070.7958" y="4629402.6578" z="0.0000" type="priority" />
	<node id="1726368106" x="688318.6714" y="4630557.7668" z="0.0000" type="priority" />
	<node id="2068119252" x="691702.5193" y="4628048.2679" z="0.0000" type="priority" />
	<node id="1726368108" x="688805.0760" y="4629872.5758" z="0.0000" type="priority" />
	<node id="2068119254" x="692282.3407" y="4627804.0884" z="0.0000" type="priority" />
	<node id="1651729532" x="689355.7025" y="4629122.6374" z="0.0000" type="priority" />
	<node id="1667482188" x="690459.8414" y="4628610.3032" z="0.0000" type="priority" />
	<node id="1651729772" x="689329.9720" y="4629175.1114" z="0.0000" type="priority" />
	<node id="1667482185" x="689151.8595" y="4629083.7449" z="0.0000" type="priority" />
	<node id="1651729419" x="689092.6499" y="4629049.3650" z="0.0000" type="priority" />
	<node id="1726368179" x="688433.4468" y="4630313.8049" z="0.0000" type="priority" />
	<node id="1726368059" x="688072.1556" y="4630941.4137" z="0.0000" type="priority" />
	<node id="1837507989" x="690571.8522" y="4628420.1422" z="0.0000" type="priority" />
	<node id="1726368171" x="688232.9622" y="4630780.7744" z="0.0000" type="priority" />
	<node id="1726368051" x="689086.6962" y="4629353.6004" z="0.0000" type="priority" />
	<node id="1726368052" x="688068.7514" y="4630951.9796" z="0.0000" type="priority" />
	<node id="1726368053" x="689104.5647" y="4629355.8181" z="0.0000" type="priority" />
	<node id="1726368054" x="689210.6169" y="4629267.8933" z="0.0000" type="priority" />
	<node id="1726368175" x="688179.3718" y="4630849.6061" z="0.0000" type="priority" />
	<node id="1726368055" x="688349.8561" y="4630455.9998" z="0.0000" type="priority" />
	<node id="1726349770" x="687775.4525" y="4631558.6373" z="0.0000" type="priority" />
	<node id="1726368177" x="688258.6567" y="4630734.8407" z="0.0000" type="priority" />
	<node id="1726368178" x="688152.7547" y="4630878.2268" z="0.0000" type="priority" />
	<node id="1651730077" x="689356.0017" y="4629097.2449" z="0.0000" type="priority" />
	<node id="1651729400" x="689244.7746" y="4629200.7976" z="0.0000" type="priority" />
	<node id="1651728673" x="689363.9163" y="4629325.5474" z="0.0000" type="priority" />
	<node id="1651728793" x="689261.5597" y="4629089.2519" z="0.0000" type="priority" />
	<node id="1726368060" x="688125.1358" y="4630895.6654" z="0.0000" type="priority" />
	<node id="1651730190" x="689281.7240" y="4629122.8314" z="0.0000" type="priority" />
	<node id="1651729649" x="689058.5754" y="4629397.5341" z="0.0000" type="priority" />
	<node id="1726368048" x="688657.9043" y="4630089.5650" z="0.0000" type="priority" />
	<node id="1726368169" x="688548.2978" y="4630203.5368" z="0.0000" type="priority" />
	<node id="1726368049" x="688600.5071" y="4630152.0378" z="0.0000" type="priority" />
	<node id="1651729508" x="689216.4543" y="4629262.8701" z="0.0000" type="priority" />
	<node id="1726349666" x="687800.3675" y="4631442.0034" z="0.0000" type="priority" />
	<node id="2068119198" x="691879.7969" y="4627989.9149" z="0.0000" type="priority" />
	<node id="1651729190" x="689358.1270" y="4629055.9895" z="0.0000" type="priority" />
	<node id="1726368040" x="688272.7896" y="4630689.4575" z="0.0000" type="priority" />
	<node id="1726368161" x="688526.1826" y="4630213.6083" z="0.0000" type="priority" />
	<node id="1726349664" x="687803.4001" y="4631403.2163" z="0.0000" type="priority" />
	<node id="1726368041" x="688682.5251" y="4630069.3378" z="0.0000" type="priority" />
	<node id="2068119199" x="691782.6083" y="4628028.2171" z="0.0000" type="priority" />
	<node id="1651729073" x="689345.5128" y="4629321.2370" z="0.0000" type="priority" />
	<node id="1651729194" x="689271.5617" y="4629244.5750" z="0.0000" type="priority" />
	<node id="1726368043" x="689049.0992" y="4629414.6945" z="0.0000" type="priority" />
	<node id="1651729072" x="689328.2123" y="4629317.6670" z="0.0000" type="priority" />
	<node id="1726368044" x="688632.0308" y="4630123.5372" z="0.0000" type="priority" />
	<node id="1726368165" x="689012.9211" y="4629447.9704" z="0.0000" type="priority" />
	<node id="1651729071" x="689060.6480" y="4629361.3440" z="0.0000" type="priority" />
	<node id="1726368046" x="688581.0424" y="4630164.3681" z="0.0000" type="priority" />
	<node id="1726368167" x="688425.9360" y="4630312.6732" z="0.0000" type="priority" />
	<node id="1651730187" x="689292.7191" y="4629041.1994" z="0.0000" type="priority" />
	<node id="1651729075" x="689231.2556" y="4629155.5608" z="0.0000" type="priority" />
	<node id="1651729074" x="689380.1105" y="4629180.5412" z="0.0000" type="priority" />
	<node id="1651730188" x="689207.6681" y="4629069.1567" z="0.0000" type="priority" />
	<node id="1651728663" x="689356.7802" y="4629084.8209" z="0.0000" type="priority" />
	<node id="1651729993" x="689306.7335" y="4629320.2086" z="0.0000" type="priority" />
	<node id="1651729079" x="689348.0936" y="4629042.3788" z="0.0000" type="priority" />
	<node id="1651730185" x="689095.3176" y="4629375.9402" z="0.0000" type="priority" />
	<node id="1667481353" x="689272.1764" y="4629129.1673" z="0.0000" type="priority" />
	<node id="1667481595" x="689972.7544" y="4629043.8490" z="0.0000" type="priority" />
	<node id="1651730181" x="689054.1178" y="4629392.5382" z="0.0000" type="priority" />
	<node id="2068119190" x="691945.1248" y="4627956.2356" z="0.0000" type="priority" />
	<node id="1651729999" x="689258.7166" y="4629252.6568" z="0.0000" type="priority" />
	<node id="1726368036" x="688763.1186" y="4629941.2226" z="0.0000" type="priority" />
	<node id="1726349638" x="687789.9081" y="4631509.0397" z="0.0000" type="priority" />
	<node id="2068119182" x="691017.0190" y="4628044.7134" z="0.0000" type="priority" />
	<node id="2068119181" x="690773.1245" y="4628162.6203" z="0.0000" type="priority" />
	<node id="1726368039" x="688487.5380" y="4630258.3548" z="0.0000" type="priority" />
	<node id="2068119187" x="692568.9513" y="4627707.5164" z="0.0000" type="priority" />
	<node id="1726349634" x="687813.3809" y="4631303.5228" z="0.0000" type="priority" />
	<node id="2068119185" x="691596.9847" y="4628057.3476" z="0.0000" type="priority" />
	<node id="1726368151" x="688412.2468" y="4630341.1899" z="0.0000" type="priority" />
	<node id="1726368031" x="688186.5705" y="4630831.9736" z="0.0000" type="priority" />
	<node id="1726368153" x="688109.7956" y="4630917.5168" z="0.0000" type="priority" />
	<node id="1726368034" x="688373.9778" y="4630386.8802" z="0.0000" type="priority" />
	<node id="1726368035" x="688302.6628" y="4630589.7780" z="0.0000" type="priority" />
	<node id="1667481443" x="690118.8412" y="4629000.7585" z="0.0000" type="priority" />
	<node id="1651730177" x="689107.7967" y="4629404.2600" z="0.0000" type="priority" />
	<node id="1667481446" x="690168.9721" y="4628969.3594" z="0.0000" type="priority" />
	<node id="1651730051" x="689271.6148" y="4629113.9633" z="0.0000" type="priority" />
	<node id="1667481561" x="690320.1870" y="4628810.7290" z="0.0000" type="priority" />
	<node id="1651729860" x="689177.6303" y="4629394.9988" z="0.0000" type="priority" />
	<node id="1651730294" x="689091.7833" y="4629367.4798" z="0.0000" type="priority" />
	<node id="1651728777" x="689814.2763" y="4629099.2687" z="0.0000" type="priority" />
	<node id="1667482095" x="690407.4793" y="4628674.3973" z="0.0000" type="priority" />
	<node id="3957485251" x="689377.3708" y="4629148.4014" z="0.0000" type="priority" />
	<node id="3957485250" x="689266.9082" y="4629141.2611" z="0.0000" type="priority" />
	<node id="3957485253" x="689565.6753" y="4629159.2208" z="0.0000" type="priority" />
	<node id="3957485252" x="689314.2749" y="4629152.4504" z="0.0000" type="priority" />
	<node id="1651729627" x="689451.5293" y="4629165.5468" z="0.0000" type="priority" />
	<node id="1667482092" x="691776.6293" y="4628011.7672" z="0.0000" type="priority" />
	<node id="1726368025" x="688975.2139" y="4629509.1841" z="0.0000" type="priority" />
	<node id="1726368146" x="688321.2701" y="4630525.4462" z="0.0000" type="priority" />
	<node id="1726368147" x="689028.5626" y="4629425.0064" z="0.0000" type="priority" />
	<node id="1726368028" x="689048.4197" y="4629389.7984" z="0.0000" type="priority" />
	<node id="1726349765" x="687760.9576" y="4631592.6783" z="0.0000" type="priority" />
	<node id="5439750728" x="691649.5936" y="4628039.4917" z="0.0000" type="priority" />
	<node id="5439750729" x="690965.4033" y="4628060.6448" z="0.0000" type="priority" />
	<node id="1726349761" x="687927.7832" y="4631065.7332" z="0.0000" type="priority" />
	<node id="1726349643" x="687957.9401" y="4631036.7940" z="0.0000" type="priority" />
	<node id="1726368020" x="688853.6520" y="4629771.2595" z="0.0000" type="priority" />
	<node id="1726368141" x="688356.9976" y="4630421.9769" z="0.0000" type="priority" />
	<node id="1667481337" x="690329.1148" y="4628818.9671" z="0.0000" type="priority" />
	<node id="1651729050" x="689351.1602" y="4629195.7736" z="0.0000" type="priority" />
	<node id="1651729171" x="689264.3073" y="4629103.5472" z="0.0000" type="priority" />
	<node id="1726368143" x="688337.8680" y="4630470.7947" z="0.0000" type="priority" />
	<node id="2379319664" x="689115.0667" y="4629347.3406" z="0.0000" type="priority" />
	<node id="1726368145" x="688452.1041" y="4630284.4861" z="0.0000" type="priority" />
	<node id="1667481575" x="689563.5759" y="4629145.5870" z="0.0000" type="priority" />
	<node id="1651730164" x="689085.1501" y="4629361.1151" z="0.0000" type="priority" />
	<node id="3418594918" x="692190.5359" y="4627841.1747" z="0.0000" type="priority" />
	<node id="1651730161" x="689301.9092" y="4629249.7018" z="0.0000" type="priority" />
	<node id="1667481450" x="691098.4006" y="4628037.8012" z="0.0000" type="priority" />
	<node id="1667481571" x="689807.7748" y="4629087.9623" z="0.0000" type="priority" />
	<node id="1667481573" x="691488.5014" y="4628038.6933" z="0.0000" type="priority" />
	<node id="5439750726" x="691833.1942" y="4628010.4638" z="0.0000" type="priority" />
	<node id="5439750727" x="691649.6888" y="4628055.1615" z="0.0000" type="priority" />
	<node id="1651728643" x="689514.8052" y="4629163.8038" z="0.0000" type="priority" />
	<node id="5439750724" x="692085.8782" y="4627872.5385" z="0.0000" type="priority" />
	<node id="5439750725" x="691829.8730" y="4627994.7741" z="0.0000" type="priority" />
	<node id="1651729738" x="689313.2563" y="4629236.0247" z="0.0000" type="priority" />
	<node id="5439750722" x="692396.3903" y="4627751.1239" z="0.0000" type="priority" />
	<node id="5439750723" x="692090.9515" y="4627883.6753" z="0.0000" type="priority" />
	<node id="5439750721" x="692400.9700" y="4627761.4254" z="0.0000" type="priority" />
	<node id="3957516629" x="689284.2592" y="4629230.7669" z="0.0000" type="priority" />
	<node id="1726368094" x="689040.8179" y="4629407.1418" z="0.0000" type="priority" />
	<node id="1726368095" x="688735.5189" y="4629989.8156" z="0.0000" type="priority" />
	<node id="1726368097" x="689022.0258" y="4629446.7225" z="0.0000" type="priority" />
	<node id="1726368098" x="688706.7184" y="4630031.3213" z="0.0000" type="priority" />
	<node id="2068119205" x="691090.5319" y="4628027.2682" z="0.0000" type="priority" />
	<node id="1667481702" x="689451.0805" y="4629153.0013" z="0.0000" type="priority" />
	<node id="1726349694" x="687868.7879" y="4631146.8136" z="0.0000" type="priority" />
	<node id="1651729165" x="689205.2891" y="4629128.8056" z="0.0000" type="priority" />
	<node id="5439750730" x="690969.7255" y="4628071.6273" z="0.0000" type="priority" />
	<node id="1667482237" x="691368.6236" y="4628030.2803" z="0.0000" type="priority" />
	<node id="1667481941" x="689628.1595" y="4629132.5017" z="0.0000" type="priority" />
	<node id="1651729047" x="689159.4719" y="4629070.1019" z="0.0000" type="priority" />
	<node id="1651729045" x="689263.1972" y="4629044.4169" z="0.0000" type="priority" />
	<node id="1651729965" x="689220.4539" y="4629142.3855" z="0.0000" type="priority" />
	<node id="1667481380" x="692563.3212" y="4627696.9975" z="0.0000" type="priority" />
	<node id="1651729842" x="689084.2746" y="4629399.8258" z="0.0000" type="priority" />
	<node id="5439750735" x="690739.8867" y="4628206.0781" z="0.0000" type="priority" />
	<node id="1651728631" x="689319.7857" y="4629029.9169" z="0.0000" type="priority" />
	<node id="1651729049" x="689364.1594" y="4629070.5831" z="0.0000" type="priority" />
	<node id="5439750736" x="690732.4273" y="4628195.4675" z="0.0000" type="priority" />
	<node id="5439750733" x="690811.3005" y="4628147.2619" z="0.0000" type="priority" />
	<node id="5439750734" x="690804.5310" y="4628138.2252" z="0.0000" type="priority" />
	<node id="5439750731" x="690885.1423" y="4628105.9339" z="0.0000" type="priority" />
	<node id="5439750732" x="690879.2289" y="4628095.9867" z="0.0000" type="priority" />
	<node id="1726368083" x="688396.7688" y="4630351.4926" z="0.0000" type="priority" />
	<node id="1726368085" x="688652.6619" y="4630102.3155" z="0.0000" type="priority" />
	<node id="1726368086" x="688239.8218" y="4630757.4107" z="0.0000" type="priority" />
	<node id="1651730257" x="689363.2098" y="4629101.0584" z="0.0000" type="priority" />
	<node id="1651730138" x="689001.6308" y="4629008.7879" z="0.0000" type="priority" />
	<node id="1726368089" x="688733.8289" y="4630003.1044" z="0.0000" type="priority" />
	<node id="1667481399" x="690521.2148" y="4628506.4711" z="0.0000" type="priority" />
	<node id="1651729395" x="689242.1530" y="4629182.0611" z="0.0000" type="priority" />
	<node id="1651730266" x="689304.5554" y="4629217.3270" z="0.0000" type="priority" />
	<node id="1651729393" x="689280.1991" y="4629328.3941" z="0.0000" type="priority" />
	<node id="1651730260" x="688797.0564" y="4628890.1523" z="0.0000" type="priority" />
	<node id="1651729399" x="689142.4631" y="4629093.1628" z="0.0000" type="priority" />
	<node id="1667481396" x="690698.6782" y="4628245.3232" z="0.0000" type="priority" />
	<node id="1726368091" x="688362.7145" y="4630425.2389" z="0.0000" type="priority" />
	<node id="1651730141" x="689289.4888" y="4629031.9359" z="0.0000" type="priority" />
	<node id="1651730261" x="689365.7414" y="4629086.1808" z="0.0000" type="priority" />
	<node id="1667481398" x="690778.2425" y="4628172.1461" z="0.0000" type="priority" />
	<node id="1667481271" x="690359.0113" y="4628754.9737" z="0.0000" type="priority" />
	<node id="1651729038" x="689330.3344" y="4629217.8884" z="0.0000" type="priority" />
	<node id="1726349559" x="687824.1686" y="4631257.8175" z="0.0000" type="priority" />
	<node id="1651730008" x="689064.3039" y="4629401.0080" z="0.0000" type="priority" />
	<node id="1726368072" x="688751.0098" y="4629975.6139" z="0.0000" type="priority" />
	<node id="1837508014" x="690652.4529" y="4628299.3015" z="0.0000" type="priority" />
	<node id="4868825225" x="689258.5739" y="4629288.1536" z="0.0000" type="priority" />
	<node id="1651730007" x="689300.2334" y="4629131.3222" z="0.0000" type="priority" />
	<node id="1837508013" x="691247.8155" y="4628034.8669" z="0.0000" type="priority" />
	<node id="4868825226" x="689149.0893" y="4629319.8193" z="0.0000" type="priority" />
	<node id="1837508016" x="690602.4467" y="4628346.3346" z="0.0000" type="priority" />
	<node id="4868825227" x="689148.2798" y="4629328.7202" z="0.0000" type="priority" />
	<node id="1667481806" x="691250.0261" y="4628022.5035" z="0.0000" type="priority" />
	<node id="1726368075" x="688773.0868" y="4629935.2750" z="0.0000" type="priority" />
	<node id="4868825228" x="689162.5684" y="4629321.3764" z="0.0000" type="priority" />
	<node id="1726368076" x="688259.5033" y="4630719.7628" z="0.0000" type="priority" />
	<node id="4868825229" x="689237.6188" y="4629297.2871" z="0.0000" type="priority" />
	<node id="1726349670" x="687796.1400" y="4631475.6590" z="0.0000" type="priority" />
	<node id="1726368077" x="689095.5607" y="4629367.3909" z="0.0000" type="priority" />
	<node id="1726368078" x="689061.1888" y="4629404.3478" z="0.0000" type="priority" />
	<node id="1651730005" x="689055.2538" y="4629366.2790" z="0.0000" type="priority" />
	<node id="1726368079" x="688292.0580" y="4630653.9322" z="0.0000" type="priority" />
	<node id="1651729262" x="689281.0095" y="4629045.3335" z="0.0000" type="priority" />
	<node id="4868825230" x="689272.0709" y="4629252.9664" z="0.0000" type="priority" />
	<node id="1651729268" x="689257.0269" y="4629263.7011" z="0.0000" type="priority" />
	<node id="1726368080" x="688982.5229" y="4629511.6887" z="0.0000" type="priority" />
	<node id="1726368081" x="689145.7123" y="4629312.3297" z="0.0000" type="priority" />
	<node id="1651728973" x="689050.4293" y="4629379.8514" z="0.0000" type="priority" />
	<node id="1651728977" x="689342.8328" y="4629052.3061" z="0.0000" type="priority" />
	<node id="1651728718" x="689051.3182" y="4629386.4751" z="0.0000" type="priority" />
	<node id="1651728716" x="689298.9429" y="4629212.3004" z="0.0000" type="priority" />
	<node id="1667481818" x="690049.5123" y="4629031.1358" z="0.0000" type="priority" />
	<node id="1667481935" x="689210.0743" y="4629108.2654" z="0.0000" type="priority" />
	<node id="1726368061" x="688205.6425" y="4630817.4209" z="0.0000" type="priority" />
	<node id="1726368062" x="688921.5624" y="4629632.1879" z="0.0000" type="priority" />
	<node id="1726368064" x="689099.4417" y="4629360.2492" z="0.0000" type="priority" />
	<node id="1651730114" x="689240.3118" y="4629352.2260" z="0.0000" type="priority" />
	<node id="1667481811" x="689513.5967" y="4629150.7492" z="0.0000" type="priority" />
	<node id="1726368066" x="688275.2850" y="4630697.9123" z="0.0000" type="priority" />
	<node id="1726368188" x="688931.4331" y="4629596.0153" z="0.0000" type="priority" />
	<node id="3957516630" x="689289.5825" y="4629234.7859" z="0.0000" type="priority" />
	<node id="1726368068" x="688336.9081" y="4630492.0474" z="0.0000" type="priority" />
	<node id="5439750763" x="690421.7133" y="4628675.1324" z="0.0000" type="priority" />
	<node id="1651729130" x="689093.6398" y="4629389.6848" z="0.0000" type="priority" />
	<node id="1651729372" x="689051.7252" y="4629372.6745" z="0.0000" type="priority" />
	<node id="1651729498" x="689237.2896" y="4629166.9653" z="0.0000" type="priority" />
	<node id="1726368190" x="688213.3284" y="4630798.0234" z="0.0000" type="priority" />
	<node id="1667482222" x="691598.9053" y="4628042.7986" z="0.0000" type="priority" />
	<node id="1726368070" x="688452.7630" y="4630291.6480" z="0.0000" type="priority" />
	<node id="1726368071" x="688622.2270" y="4630123.2781" z="0.0000" type="priority" />
	<node id="4868825224" x="689279.0379" y="4629273.3958" z="0.0000" type="priority" />
	<node id="1651729258" x="689402.9343" y="4629174.3354" z="0.0000" type="priority" />
	<node id="5439750766" x="690205.2653" y="4628929.5696" z="0.0000" type="priority" />
	<node id="5439750767" x="689888.9043" y="4629067.1746" z="0.0000" type="priority" />
	<node id="5439750764" x="690279.8776" y="4628859.8226" z="0.0000" type="priority" />
	<node id="1651729933" x="689354.7955" y="4629072.1792" z="0.0000" type="priority" />
	<node id="5439750765" x="690211.4347" y="4628939.5898" z="0.0000" type="priority" />
	<node id="3418593893" x="691170.0590" y="4628030.9297" z="0.0000" type="priority" />
	<node id="3418593894" x="690610.9118" y="4628354.4719" z="0.0000" type="priority" />
	<node id="3418593895" x="690561.8258" y="4628415.6635" z="0.0000" type="priority" />
	<node id="1667481745" x="690113.1519" y="4628988.3179" z="0.0000" type="priority" />
	<node id="1667481988" x="691700.3822" y="4628032.1433" z="0.0000" type="priority" />
	<node id="1667481989" x="692184.6629" y="4627829.1607" z="0.0000" type="priority" />
	<node id="1667481740" x="690168.1854" y="4628957.3715" z="0.0000" type="priority" />
	<node id="5439750774" x="688897.1215" y="4628946.8994" z="0.0000" type="priority" />
	<node id="5439750771" x="689131.0273" y="4629063.7372" z="0.0000" type="priority" />
	<node id="1667481864" x="690367.1773" y="4628763.0915" z="0.0000" type="priority" />
	<node id="5439750772" x="689165.7531" y="4629108.2800" z="0.0000" type="priority" />
	<node id="1651729488" x="689475.8025" y="4629171.4688" z="0.0000" type="priority" />
	<node id="1651729245" x="689336.5911" y="4629035.2514" z="0.0000" type="priority" />
	<node id="5439750770" x="689101.0611" y="4629047.9433" z="0.0000" type="priority" />
	<node id="1667482277" x="690922.5439" y="4628089.3887" z="0.0000" type="priority" />
	<node id="1651729008" x="689095.5644" y="4629382.9468" z="0.0000" type="priority" />
	<node id="1651729800" x="689270.4576" y="4629056.6095" z="0.0000" type="priority" />
	<node id="1651728710" x="689304.4572" y="4629039.4439" z="0.0000" type="priority" />
	<node id="1651728950" x="689126.4701" y="4629406.5324" z="0.0000" type="priority" />
	<node id="1651729005" x="689206.8420" y="4629120.7244" z="0.0000" type="priority" />
	<node id="1651728714" x="689158.2257" y="4629403.3737" z="0.0000" type="priority" />
	<node id="5439750775" x="688903.3290" y="4628935.7413" z="0.0000" type="priority" />
	<node id="5439750776" x="689067.3370" y="4629358.3767" z="0.0000" type="priority" />
	<node id="1726349704" x="687807.8393" y="4631344.4661" z="0.0000" type="priority" />
	<node id="2068119231" x="690640.6901" y="4628295.6874" z="0.0000" type="priority" />
	<node id="2068119234" x="691365.6686" y="4628043.7237" z="0.0000" type="priority" />
	<node id="1651730222" x="689377.8395" y="4629160.8251" z="0.0000" type="priority" />
	<node id="1667481996" x="690289.1479" y="4628867.3809" z="0.0000" type="priority" />
	<node id="1667482047" x="691871.3772" y="4627977.0216" z="0.0000" type="priority" />
	<node id="1667482282" x="691021.9403" y="4628055.6787" z="0.0000" type="priority" />
	<node id="1651729237" x="689356.0376" y="4629323.8273" z="0.0000" type="priority" />
	<node id="1651728701" x="689319.7227" y="4629173.7285" z="0.0000" type="priority" />
	<node id="2068119224" x="691485.7087" y="4628052.2745" z="0.0000" type="priority" />
	<node id="1651730202" x="689349.8612" y="4629059.7593" z="0.0000" type="priority" />
	<node id="2068119228" x="690690.8441" y="4628238.1582" z="0.0000" type="priority" />
	<node id="2068119227" x="690917.7635" y="4628079.3717" z="0.0000" type="priority" />
	<node id="1651729583" x="689892.1540" y="4629078.8057" z="0.0000" type="priority" />
	<node id="1651730210" x="689304.6407" y="4629029.0709" z="0.0000" type="priority" />
	<node id="1651729465" x="689628.0698" y="4629146.2107" z="0.0000" type="priority" />
	<node id="1651729342" x="689076.5295" y="4629357.8979" z="0.0000" type="priority" />
	<node id="1667481282" x="692767.6978" y="4627631.5514" z="0.0000" type="priority" />
	<node id="91778082" x="692851.1521" y="4627615.3254" z="0.0000" type="priority" />
	<node id="91778078" x="691168.5949" y="4628018.2012" z="0.0000" type="priority" />
	<node id="1651728918" x="689089.7273" y="4629395.5035" z="0.0000" type="priority" />
	<node id="2068119213" x="692774.9340" y="4627644.4916" z="0.0000" type="priority" />
	<node id="1667481618" x="690250.4357" y="4628906.7947" z="0.0000" type="priority" />
	<node id="2068119217" x="690841.2774" y="4628115.9953" z="0.0000" type="priority" />
	<node id="1667481615" x="690244.0099" y="4628896.7233" z="0.0000" type="priority" />
	<node id="1667482269" x="688992.5658" y="4628989.6700" z="0.0000" type="priority" />
	<node id="1651730200" x="689975.8625" y="4629056.1097" z="0.0000" type="priority" />
	<node id="1667481610" x="692844.6211" y="4627595.9816" z="0.0000" type="priority" />
	<node id="1651729210" x="689262.9481" y="4629073.8885" z="0.0000" type="priority" />
</nodes>
