<?xml version="1.0" ?>
<!-- Generated by VSimRTI -->
<routes>
	<vType id="default" length="7.5" maxSpeed="50" minGap="2.0" carFollowModel="Krauss" accel="0.80" decel="4.5" sigma="0.5" tau="1"/>
	<route id="1" edges="160583648_252613673_1651728973_1726368188 160583648_252613673_1651728973_1726368025 160583648_252613673_1651728973_1726368133 160583648_252613673_1651728973_1726368165 160583648_252613673_1651728973_1726368147 160583648_252613673_1651728973_1726368094 160583648_252613673_1651728973_1726368112 160583648_252613673_1651728973_1726368028 152349105_1651728973_1651729342_1651728973 152349105_1651728973_1651729342_1651729372 152349105_1651728973_1651729342_1651730005 152349105_1651728973_1651729342_1651729071 152349105_1651728973_1651729342_5439750776 160583631_1651729342_1726368081_1651729342 160583631_1651729342_1726368081_1726368051 160583631_1651729342_1726368081_1726368126 160583649_1726368081_1651728701_1726368081 160583649_1726368081_1651728701_1726368139 160583649_1726368081_1651728701_1651729999 160583649_1726368081_1651728701_1651729194 160583649_1726368081_1651728701_3957516629 160583649_1726368081_1651728701_1651728716 184159080_1651728701_1651729568_1651728701 184159079_1651729568_1651728902_1651729568 184159079_1651729568_1651728902_1651730077 184159079_1651729568_1651728902_1651728663 184159079_1651729568_1651728902_1651729933 184159079_1651729568_1651728902_1651730202 184159079_1651729568_1651728902_1651728977 184159079_1651729568_1651728902_1651729322 184159079_1651729568_1651728902_1651729328 184159079_1651729568_1651728902_1651728710 184159079_1651729568_1651728902_1651730187 184159079_1651729568_1651728902_1651729262 184159079_1651729568_1651728902_1651729800 184159079_1651729568_1651728902_1651729210 184159079_1651729568_1651728902_1651728793 184159079_1651729568_1651728902_1651729171 184159079_1651729568_1651728902_1651730051 184159079_1651729568_1651728902_1651730190 184159079_1651729568_1651728902_1651730007 169093845_1651728902_1667481610_1651728902 169093845_1651728902_1667481610_3957485251 169093845_1651728902_1667481610_1667481702 169093845_1651728902_1667481610_1667481811 169093845_1651728902_1667481610_1667481575 169093845_1651728902_1667481610_1667481941 169093845_1651728902_1667481610_1667481571" />
	<route id="2" edges="161823700_91778082_1651728643_1651729583 161823700_91778082_1651728643_1651728777 161823700_91778082_1651728643_1651729465 161823700_91778082_1651728643_3957485253 152349098_1651728643_2379319664_1651728643 152349098_1651728643_2379319664_1651729488 152349098_1651728643_2379319664_1651729258 152349098_1651728643_2379319664_1651729074 152349098_1651728643_2379319664_1651729050 152349098_1651728643_2379319664_1651729038 152349098_1651728643_2379319664_1651729738 152349098_1651728643_2379319664_1651730161 152349098_1651728643_2379319664_4868825224 152349098_1651728643_2379319664_4868825225 152349098_1651728643_2379319664_4868825229 152349098_1651728643_2379319664_4868825228 152349098_1651728643_2379319664_4868825227 160583636_2379319664_1651730185_2379319664 160583636_2379319664_1651730185_1726368053 160583636_2379319664_1651730185_1726368064 160583636_2379319664_1651730185_1726368077 152349105_1651730185_1651728918_1651730185 152349105_1651730185_1651728918_1651729008 152349105_1651730185_1651728918_1651729130 152349105_1651728918_1726368104_1651728918 152349105_1651728918_1726368104_1651729842 152349105_1651728918_1726368104_1651728692 160583635_1726368104_1726349626_1726368104 160583635_1726368104_1726349626_1726368078 160583635_1726368104_1726349626_1726368043 160583635_1726368104_1726349626_1726368097 160583635_1726368104_1726349626_1726368111" />
	<route id="3" edges="160583648_252613673_1651728973_1726368188 160583648_252613673_1651728973_1726368025 160583648_252613673_1651728973_1726368133 160583648_252613673_1651728973_1726368165 160583648_252613673_1651728973_1726368147 160583648_252613673_1651728973_1726368094 160583648_252613673_1651728973_1726368112 160583648_252613673_1651728973_1726368028 152349105_1651728973_1651729342_1651728973 152349105_1651728973_1651729342_1651729372 152349105_1651728973_1651729342_1651730005 152349105_1651728973_1651729342_1651729071 152349105_1651728973_1651729342_5439750776 160583631_1651729342_1726368081_1651729342 160583631_1651729342_1726368081_1726368051 160583631_1651729342_1726368081_1726368126 160583649_1726368081_1651728701_1726368081 160583649_1726368081_1651728701_1726368139 160583649_1726368081_1651728701_1651729999 160583649_1726368081_1651728701_1651729194 160583649_1726368081_1651728701_3957516629 160583649_1726368081_1651728701_1651728716 184159080_1651728701_1651729568_1651728701 184159079_1651729568_1651728902_1651729568 184159079_1651729568_1651728902_1651730077 184159079_1651729568_1651728902_1651728663 184159079_1651729568_1651728902_1651729933 184159079_1651729568_1651728902_1651730202 184159079_1651729568_1651728902_1651728977 184159079_1651729568_1651728902_1651729322 184159079_1651729568_1651728902_1651729328 184159079_1651729568_1651728902_1651728710 184159079_1651729568_1651728902_1651730187 184159079_1651729568_1651728902_1651729262 184159079_1651729568_1651728902_1651729800 184159079_1651729568_1651728902_1651729210 184159079_1651729568_1651728902_1651728793 184159079_1651729568_1651728902_1651729171 184159079_1651729568_1651728902_1651730051 184159079_1651729568_1651728902_1651730190 184159079_1651729568_1651728902_1651730007 169093845_1651728902_1667481610_1651728902 169093845_1651728902_1667481610_3957485251 169093845_1651728902_1667481610_1667481702 169093845_1651728902_1667481610_1667481811 169093845_1651728902_1667481610_1667481575 169093845_1651728902_1667481610_1667481941 169093845_1651728902_1667481610_1667481571 169093845_1651728902_1667481610_5439750767 169093845_1651728902_1667481610_1667481595 169093845_1651728902_1667481610_1667481679 169093845_1651728902_1667481610_1667481745 169093845_1651728902_1667481610_1667481740 169093845_1651728902_1667481610_5439750766 169093845_1651728902_1667481610_1667481615 169093845_1651728902_1667481610_5439750764 169093845_1651728902_1667481610_1667481561 169093845_1651728902_1667481610_1667481271 169093845_1651728902_1667481610_1667482095 169093845_1651728902_1667481610_1667482191 169093845_1651728902_1667481610_1667481557 169093845_1651728902_1667481610_3418593895 169093845_1651728902_1667481610_1837508016 169093845_1651728902_1667481610_2068119231 169093845_1651728902_1667481610_2068119228 169093845_1651728902_1667481610_5439750736 169093845_1651728902_1667481610_2068119181 169093845_1651728902_1667481610_5439750734 169093845_1651728902_1667481610_2068119217 169093845_1651728902_1667481610_5439750732 169093845_1651728902_1667481610_2068119227 169093845_1651728902_1667481610_5439750729 169093845_1651728902_1667481610_2068119182 169093845_1651728902_1667481610_2068119205 169093845_1651728902_1667481610_91778078 169093845_1651728902_1667481610_1667481806 169093845_1651728902_1667481610_1667482237 169093845_1651728902_1667481610_1667481573 169093845_1651728902_1667481610_1667482222 169093845_1651728902_1667481610_5439750728 169093845_1651728902_1667481610_1667481988 169093845_1651728902_1667481610_1667482092 169093845_1651728902_1667481610_5439750725 169093845_1651728902_1667481610_1667482047 169093845_1651728902_1667481610_1667482087 169093845_1651728902_1667481610_5439750724 169093845_1651728902_1667481610_1667481989 169093845_1651728902_1667481610_1667481647 169093845_1651728902_1667481610_5439750722 169093845_1651728902_1667481610_1667481380 169093845_1651728902_1667481610_1667481282" />
	<route id="4" edges="161823700_1651729399_1651730260_1651730138 161823700_1651729399_1651730260_5439750774" />
	<route id="5" edges="161823700_91778082_1651728643_1651729583 161823700_91778082_1651728643_1651728777 161823700_91778082_1651728643_1651729465 161823700_91778082_1651728643_3957485253 152349098_1651728643_2379319664_1651728643 152349098_1651728643_2379319664_1651729488 152349098_1651728643_2379319664_1651729258 152349098_1651728643_2379319664_1651729074 152349098_1651728643_2379319664_1651729050 152349098_1651728643_2379319664_1651729038 152349098_1651728643_2379319664_1651729738 152349098_1651728643_2379319664_1651730161 152349098_1651728643_2379319664_4868825224 152349098_1651728643_2379319664_4868825225 152349098_1651728643_2379319664_4868825229 152349098_1651728643_2379319664_4868825228 152349098_1651728643_2379319664_4868825227 160583636_2379319664_1651730185_2379319664 160583636_2379319664_1651730185_1726368053 160583636_2379319664_1651730185_1726368064 160583636_2379319664_1651730185_1726368077 152349105_1651730185_1651728918_1651730185 152349105_1651730185_1651728918_1651729008 152349105_1651730185_1651728918_1651729130 152349105_1651728918_1726368104_1651728918 152349105_1651728918_1726368104_1651729842 152349105_1651728918_1726368104_1651728692 152349105_1726368104_1651728718_1726368104 152349105_1726368104_1651728718_1651730008 152349105_1726368104_1651728718_1651729649 152349105_1726368104_1651728718_1651730181 152349105_1651728718_1651728973_1651728718 152349105_1651728973_1651729342_1651728973 152349105_1651728973_1651729342_1651729372 152349105_1651728973_1651729342_1651730005 152349105_1651728973_1651729342_1651729071 152349105_1651728973_1651729342_5439750776 160583631_1651729342_1726368081_1651729342 160583631_1651729342_1726368081_1726368051 160583631_1651729342_1726368081_1726368126 160583649_1726368081_1651728701_1726368081 160583649_1726368081_1651728701_1726368139 160583649_1726368081_1651728701_1651729999 160583649_1726368081_1651728701_1651729194 160583649_1726368081_1651728701_3957516629 160583649_1726368081_1651728701_1651728716 184159080_1651728701_1651729568_1651728701 184159079_1651729568_1651728902_1651729568 184159079_1651729568_1651728902_1651730077 184159079_1651729568_1651728902_1651728663 184159079_1651729568_1651728902_1651729933 184159079_1651729568_1651728902_1651730202 184159079_1651729568_1651728902_1651728977 184159079_1651729568_1651728902_1651729322 184159079_1651729568_1651728902_1651729328 184159079_1651729568_1651728902_1651728710 184159079_1651729568_1651728902_1651730187 184159079_1651729568_1651728902_1651729262 184159079_1651729568_1651728902_1651729800 184159079_1651729568_1651728902_1651729210 184159079_1651729568_1651728902_1651728793 184159079_1651729568_1651728902_1651729171 184159079_1651729568_1651728902_1651730051 184159079_1651729568_1651728902_1651730190 184159079_1651729568_1651728902_1651730007 169093845_1651728902_1667481610_1651728902 169093845_1651728902_1667481610_3957485251 169093845_1651728902_1667481610_1667481702 169093845_1651728902_1667481610_1667481811 169093845_1651728902_1667481610_1667481575 169093845_1651728902_1667481610_1667481941 169093845_1651728902_1667481610_1667481571" />
</routes>