<edges>
	<edge id="152349105_1726368104_1651728718_1726368104" from="1726368104" to="1651730008" numLanes="2" speed="18.06" />
	<edge id="152349105_1726368104_1651728718_1651730008" from="1651730008" to="1651729649" numLanes="2" speed="18.06" />
	<edge id="152349105_1726368104_1651728718_1651729649" from="1651729649" to="1651730181" numLanes="2" speed="18.06" />
	<edge id="152349105_1726368104_1651728718_1651730181" from="1651730181" to="1651728718" numLanes="2" speed="18.06" />
	<edge id="169093845_1667482072_1651729419_1667482072" from="1667482072" to="5439750775" numLanes="2" speed="33.33" />
	<edge id="169093845_1667482072_1651729419_5439750775" from="5439750775" to="1667482269" numLanes="2" speed="33.33" />
	<edge id="169093845_1667482072_1651729419_1667482269" from="1667482269" to="1651729419" numLanes="2" speed="33.33" />
	<edge id="152349122_1651728673_1651728918_1651728673" from="1651728673" to="1651729237" numLanes="1" speed="13.89" />
	<edge id="152349122_1651728673_1651728918_1651729237" from="1651729237" to="1651729073" numLanes="1" speed="13.89" />
	<edge id="152349122_1651728673_1651728918_1651729073" from="1651729073" to="1651729072" numLanes="1" speed="13.89" />
	<edge id="152349122_1651728673_1651728918_1651729072" from="1651729072" to="1651729993" numLanes="1" speed="13.89" />
	<edge id="152349122_1651728673_1651728918_1651729993" from="1651729993" to="1651729393" numLanes="1" speed="13.89" />
	<edge id="152349122_1651728673_1651728918_1651729393" from="1651729393" to="1651730114" numLanes="1" speed="13.89" />
	<edge id="152349122_1651728673_1651728918_1651730114" from="1651730114" to="1651729860" numLanes="1" speed="13.89" />
	<edge id="152349122_1651728673_1651728918_1651729860" from="1651729860" to="1651728714" numLanes="1" speed="13.89" />
	<edge id="152349122_1651728673_1651728918_1651728714" from="1651728714" to="1651729793" numLanes="1" speed="13.89" />
	<edge id="152349122_1651728673_1651728918_1651729793" from="1651729793" to="1651728950" numLanes="1" speed="13.89" />
	<edge id="152349122_1651728673_1651728918_1651728950" from="1651728950" to="1651730177" numLanes="1" speed="13.89" />
	<edge id="152349122_1651728673_1651728918_1651730177" from="1651730177" to="1651728918" numLanes="1" speed="13.89" />
	<edge id="152349105_1651729342_1651730185_1651729342" from="1651729342" to="1651730164" numLanes="2" speed="18.06" />
	<edge id="152349105_1651729342_1651730185_1651730164" from="1651730164" to="1651730294" numLanes="2" speed="18.06" />
	<edge id="152349105_1651729342_1651730185_1651730294" from="1651730294" to="1651730185" numLanes="2" speed="18.06" />
	<edge id="152349087_1651729419_1651729532_1651729419" from="1651729419" to="5439750770" numLanes="1" speed="19.44" />
	<edge id="152349087_1651729419_1651729532_5439750770" from="5439750770" to="5439750771" numLanes="1" speed="19.44" />
	<edge id="152349087_1651729419_1651729532_5439750771" from="5439750771" to="1651729047" numLanes="1" speed="19.44" />
	<edge id="152349087_1651729419_1651729532_1651729047" from="1651729047" to="1651729424" numLanes="1" speed="19.44" />
	<edge id="152349087_1651729419_1651729532_1651729424" from="1651729424" to="1651730188" numLanes="1" speed="19.44" />
	<edge id="152349087_1651729419_1651729532_1651730188" from="1651730188" to="1651730097" numLanes="1" speed="19.44" />
	<edge id="152349087_1651729419_1651729532_1651730097" from="1651730097" to="1651729045" numLanes="1" speed="19.44" />
	<edge id="152349087_1651729419_1651729532_1651729045" from="1651729045" to="1651730141" numLanes="1" speed="19.44" />
	<edge id="152349087_1651729419_1651729532_1651730141" from="1651730141" to="1651730210" numLanes="1" speed="19.44" />
	<edge id="152349087_1651729419_1651729532_1651730210" from="1651730210" to="1651728631" numLanes="1" speed="19.44" />
	<edge id="152349087_1651729419_1651729532_1651728631" from="1651728631" to="1651729245" numLanes="1" speed="19.44" />
	<edge id="152349087_1651729419_1651729532_1651729245" from="1651729245" to="1651729079" numLanes="1" speed="19.44" />
	<edge id="152349087_1651729419_1651729532_1651729079" from="1651729079" to="1651729190" numLanes="1" speed="19.44" />
	<edge id="152349087_1651729419_1651729532_1651729190" from="1651729190" to="1651729049" numLanes="1" speed="19.44" />
	<edge id="152349087_1651729419_1651729532_1651729049" from="1651729049" to="1651730261" numLanes="1" speed="19.44" />
	<edge id="152349087_1651729419_1651729532_1651730261" from="1651730261" to="1651730257" numLanes="1" speed="19.44" />
	<edge id="152349087_1651729419_1651729532_1651730257" from="1651730257" to="1651729532" numLanes="1" speed="19.44" />
	<edge id="160583636_2379319664_1651730185_2379319664" from="2379319664" to="1726368053" numLanes="2" speed="11.11" />
	<edge id="160583636_2379319664_1651730185_1726368053" from="1726368053" to="1726368064" numLanes="2" speed="11.11" />
	<edge id="160583636_2379319664_1651730185_1726368064" from="1726368064" to="1726368077" numLanes="2" speed="11.11" />
	<edge id="160583636_2379319664_1651730185_1726368077" from="1726368077" to="1651730185" numLanes="2" speed="11.11" />
	<edge id="161823700_1651729399_1651730260_1651729399" from="1651729399" to="1651730138" numLanes="2" speed="33.33" />
	<edge id="161823700_1651729399_1651730260_1651730138" from="1651730138" to="5439750774" numLanes="2" speed="33.33" />
	<edge id="161823700_1651729399_1651730260_5439750774" from="5439750774" to="1651730260" numLanes="2" speed="33.33" />
	<edge id="160583649_1726368081_1651728701_1726368081" from="1726368081" to="1726368139" numLanes="1" speed="19.44" />
	<edge id="160583649_1726368081_1651728701_1726368139" from="1726368139" to="1651729999" numLanes="1" speed="19.44" />
	<edge id="160583649_1726368081_1651728701_1651729999" from="1651729999" to="1651729194" numLanes="1" speed="19.44" />
	<edge id="160583649_1726368081_1651728701_1651729194" from="1651729194" to="3957516629" numLanes="1" speed="19.44" />
	<edge id="160583649_1726368081_1651728701_3957516629" from="3957516629" to="1651728716" numLanes="1" speed="19.44" />
	<edge id="160583649_1726368081_1651728701_1651728716" from="1651728716" to="1651728701" numLanes="1" speed="19.44" />
	<edge id="152349098_1651728643_2379319664_1651728643" from="1651728643" to="1651729488" numLanes="1" speed="16.67" />
	<edge id="152349098_1651728643_2379319664_1651729488" from="1651729488" to="1651729258" numLanes="1" speed="16.67" />
	<edge id="152349098_1651728643_2379319664_1651729258" from="1651729258" to="1651729074" numLanes="1" speed="16.67" />
	<edge id="152349098_1651728643_2379319664_1651729074" from="1651729074" to="1651729050" numLanes="1" speed="16.67" />
	<edge id="152349098_1651728643_2379319664_1651729050" from="1651729050" to="1651729038" numLanes="1" speed="16.67" />
	<edge id="152349098_1651728643_2379319664_1651729038" from="1651729038" to="1651729738" numLanes="1" speed="16.67" />
	<edge id="152349098_1651728643_2379319664_1651729738" from="1651729738" to="1651730161" numLanes="1" speed="16.67" />
	<edge id="152349098_1651728643_2379319664_1651730161" from="1651730161" to="4868825224" numLanes="1" speed="16.67" />
	<edge id="152349098_1651728643_2379319664_4868825224" from="4868825224" to="4868825225" numLanes="1" speed="16.67" />
	<edge id="152349098_1651728643_2379319664_4868825225" from="4868825225" to="4868825229" numLanes="1" speed="16.67" />
	<edge id="152349098_1651728643_2379319664_4868825229" from="4868825229" to="4868825228" numLanes="1" speed="16.67" />
	<edge id="152349098_1651728643_2379319664_4868825228" from="4868825228" to="4868825227" numLanes="1" speed="16.67" />
	<edge id="152349098_1651728643_2379319664_4868825227" from="4868825227" to="2379319664" numLanes="1" speed="16.67" />
	<edge id="161823700_91778082_1651728643_91778082" from="91778082" to="2068119213" numLanes="2" speed="33.33" />
	<edge id="161823700_91778082_1651728643_2068119213" from="2068119213" to="2068119187" numLanes="2" speed="33.33" />
	<edge id="161823700_91778082_1651728643_2068119187" from="2068119187" to="5439750721" numLanes="2" speed="33.33" />
	<edge id="161823700_91778082_1651728643_5439750721" from="5439750721" to="2068119254" numLanes="2" speed="33.33" />
	<edge id="161823700_91778082_1651728643_2068119254" from="2068119254" to="3418594918" numLanes="2" speed="33.33" />
	<edge id="161823700_91778082_1651728643_3418594918" from="3418594918" to="5439750723" numLanes="2" speed="33.33" />
	<edge id="161823700_91778082_1651728643_5439750723" from="5439750723" to="2068119190" numLanes="2" speed="33.33" />
	<edge id="161823700_91778082_1651728643_2068119190" from="2068119190" to="2068119198" numLanes="2" speed="33.33" />
	<edge id="161823700_91778082_1651728643_2068119198" from="2068119198" to="5439750726" numLanes="2" speed="33.33" />
	<edge id="161823700_91778082_1651728643_5439750726" from="5439750726" to="2068119199" numLanes="2" speed="33.33" />
	<edge id="161823700_91778082_1651728643_2068119199" from="2068119199" to="2068119252" numLanes="2" speed="33.33" />
	<edge id="161823700_91778082_1651728643_2068119252" from="2068119252" to="5439750727" numLanes="2" speed="33.33" />
	<edge id="161823700_91778082_1651728643_5439750727" from="5439750727" to="2068119185" numLanes="2" speed="33.33" />
	<edge id="161823700_91778082_1651728643_2068119185" from="2068119185" to="2068119224" numLanes="2" speed="33.33" />
	<edge id="161823700_91778082_1651728643_2068119224" from="2068119224" to="2068119234" numLanes="2" speed="33.33" />
	<edge id="161823700_91778082_1651728643_2068119234" from="2068119234" to="1837508013" numLanes="2" speed="33.33" />
	<edge id="161823700_91778082_1651728643_1837508013" from="1837508013" to="3418593893" numLanes="2" speed="33.33" />
	<edge id="161823700_91778082_1651728643_3418593893" from="3418593893" to="1667481450" numLanes="2" speed="33.33" />
	<edge id="161823700_91778082_1651728643_1667481450" from="1667481450" to="1667482282" numLanes="2" speed="33.33" />
	<edge id="161823700_91778082_1651728643_1667482282" from="1667482282" to="5439750730" numLanes="2" speed="33.33" />
	<edge id="161823700_91778082_1651728643_5439750730" from="5439750730" to="1667482277" numLanes="2" speed="33.33" />
	<edge id="161823700_91778082_1651728643_1667482277" from="1667482277" to="5439750731" numLanes="2" speed="33.33" />
	<edge id="161823700_91778082_1651728643_5439750731" from="5439750731" to="1667482173" numLanes="2" speed="33.33" />
	<edge id="161823700_91778082_1651728643_1667482173" from="1667482173" to="5439750733" numLanes="2" speed="33.33" />
	<edge id="161823700_91778082_1651728643_5439750733" from="5439750733" to="1667481398" numLanes="2" speed="33.33" />
	<edge id="161823700_91778082_1651728643_1667481398" from="1667481398" to="5439750735" numLanes="2" speed="33.33" />
	<edge id="161823700_91778082_1651728643_5439750735" from="5439750735" to="1667481396" numLanes="2" speed="33.33" />
	<edge id="161823700_91778082_1651728643_1667481396" from="1667481396" to="1837508014" numLanes="2" speed="33.33" />
	<edge id="161823700_91778082_1651728643_1837508014" from="1837508014" to="3418593894" numLanes="2" speed="33.33" />
	<edge id="161823700_91778082_1651728643_3418593894" from="3418593894" to="1837507989" numLanes="2" speed="33.33" />
	<edge id="161823700_91778082_1651728643_1837507989" from="1837507989" to="1667481399" numLanes="2" speed="33.33" />
	<edge id="161823700_91778082_1651728643_1667481399" from="1667481399" to="1667482188" numLanes="2" speed="33.33" />
	<edge id="161823700_91778082_1651728643_1667482188" from="1667482188" to="5439750763" numLanes="2" speed="33.33" />
	<edge id="161823700_91778082_1651728643_5439750763" from="5439750763" to="1667481864" numLanes="2" speed="33.33" />
	<edge id="161823700_91778082_1651728643_1667481864" from="1667481864" to="1667481337" numLanes="2" speed="33.33" />
	<edge id="161823700_91778082_1651728643_1667481337" from="1667481337" to="1667481996" numLanes="2" speed="33.33" />
	<edge id="161823700_91778082_1651728643_1667481996" from="1667481996" to="1667481618" numLanes="2" speed="33.33" />
	<edge id="161823700_91778082_1651728643_1667481618" from="1667481618" to="5439750765" numLanes="2" speed="33.33" />
	<edge id="161823700_91778082_1651728643_5439750765" from="5439750765" to="1667481446" numLanes="2" speed="33.33" />
	<edge id="161823700_91778082_1651728643_1667481446" from="1667481446" to="1667481443" numLanes="2" speed="33.33" />
	<edge id="161823700_91778082_1651728643_1667481443" from="1667481443" to="1667481818" numLanes="2" speed="33.33" />
	<edge id="161823700_91778082_1651728643_1667481818" from="1667481818" to="1651730200" numLanes="2" speed="33.33" />
	<edge id="161823700_91778082_1651728643_1651730200" from="1651730200" to="1651729583" numLanes="2" speed="33.33" />
	<edge id="161823700_91778082_1651728643_1651729583" from="1651729583" to="1651728777" numLanes="2" speed="33.33" />
	<edge id="161823700_91778082_1651728643_1651728777" from="1651728777" to="1651729465" numLanes="2" speed="33.33" />
	<edge id="161823700_91778082_1651728643_1651729465" from="1651729465" to="3957485253" numLanes="2" speed="33.33" />
	<edge id="161823700_91778082_1651728643_3957485253" from="3957485253" to="1651728643" numLanes="2" speed="33.33" />
	<edge id="160583648_252613673_1651728973_252613673" from="252613673" to="1726349604" numLanes="2" speed="19.44" />
	<edge id="160583648_252613673_1651728973_1726349604" from="1726349604" to="1726349765" numLanes="2" speed="19.44" />
	<edge id="160583648_252613673_1651728973_1726349765" from="1726349765" to="1726349770" numLanes="2" speed="19.44" />
	<edge id="160583648_252613673_1651728973_1726349770" from="1726349770" to="1726349711" numLanes="2" speed="19.44" />
	<edge id="160583648_252613673_1651728973_1726349711" from="1726349711" to="1726349638" numLanes="2" speed="19.44" />
	<edge id="160583648_252613673_1651728973_1726349638" from="1726349638" to="1726349670" numLanes="2" speed="19.44" />
	<edge id="160583648_252613673_1651728973_1726349670" from="1726349670" to="1726349666" numLanes="2" speed="19.44" />
	<edge id="160583648_252613673_1651728973_1726349666" from="1726349666" to="1726349664" numLanes="2" speed="19.44" />
	<edge id="160583648_252613673_1651728973_1726349664" from="1726349664" to="1726349704" numLanes="2" speed="19.44" />
	<edge id="160583648_252613673_1651728973_1726349704" from="1726349704" to="1726349612" numLanes="2" speed="19.44" />
	<edge id="160583648_252613673_1651728973_1726349612" from="1726349612" to="1726349634" numLanes="2" speed="19.44" />
	<edge id="160583648_252613673_1651728973_1726349634" from="1726349634" to="1726349559" numLanes="2" speed="19.44" />
	<edge id="160583648_252613673_1651728973_1726349559" from="1726349559" to="1726349625" numLanes="2" speed="19.44" />
	<edge id="160583648_252613673_1651728973_1726349625" from="1726349625" to="1726349719" numLanes="2" speed="19.44" />
	<edge id="160583648_252613673_1651728973_1726349719" from="1726349719" to="1726349694" numLanes="2" speed="19.44" />
	<edge id="160583648_252613673_1651728973_1726349694" from="1726349694" to="1726349503" numLanes="2" speed="19.44" />
	<edge id="160583648_252613673_1651728973_1726349503" from="1726349503" to="1726349504" numLanes="2" speed="19.44" />
	<edge id="160583648_252613673_1651728973_1726349504" from="1726349504" to="1726349761" numLanes="2" speed="19.44" />
	<edge id="160583648_252613673_1651728973_1726349761" from="1726349761" to="1726349643" numLanes="2" speed="19.44" />
	<edge id="160583648_252613673_1651728973_1726349643" from="1726349643" to="1726368059" numLanes="2" speed="19.44" />
	<edge id="160583648_252613673_1651728973_1726368059" from="1726368059" to="1726368060" numLanes="2" speed="19.44" />
	<edge id="160583648_252613673_1651728973_1726368060" from="1726368060" to="1726368137" numLanes="2" speed="19.44" />
	<edge id="160583648_252613673_1651728973_1726368137" from="1726368137" to="1726368031" numLanes="2" speed="19.44" />
	<edge id="160583648_252613673_1651728973_1726368031" from="1726368031" to="1726368190" numLanes="2" speed="19.44" />
	<edge id="160583648_252613673_1651728973_1726368190" from="1726368190" to="1726368086" numLanes="2" speed="19.44" />
	<edge id="160583648_252613673_1651728973_1726368086" from="1726368086" to="1726368076" numLanes="2" speed="19.44" />
	<edge id="160583648_252613673_1651728973_1726368076" from="1726368076" to="1726368040" numLanes="2" speed="19.44" />
	<edge id="160583648_252613673_1651728973_1726368040" from="1726368040" to="1726368035" numLanes="2" speed="19.44" />
	<edge id="160583648_252613673_1651728973_1726368035" from="1726368035" to="1726368146" numLanes="2" speed="19.44" />
	<edge id="160583648_252613673_1651728973_1726368146" from="1726368146" to="1726368143" numLanes="2" speed="19.44" />
	<edge id="160583648_252613673_1651728973_1726368143" from="1726368143" to="1726368141" numLanes="2" speed="19.44" />
	<edge id="160583648_252613673_1651728973_1726368141" from="1726368141" to="1726368034" numLanes="2" speed="19.44" />
	<edge id="160583648_252613673_1651728973_1726368034" from="1726368034" to="1726368083" numLanes="2" speed="19.44" />
	<edge id="160583648_252613673_1651728973_1726368083" from="1726368083" to="1726368167" numLanes="2" speed="19.44" />
	<edge id="160583648_252613673_1651728973_1726368167" from="1726368167" to="1726368145" numLanes="2" speed="19.44" />
	<edge id="160583648_252613673_1651728973_1726368145" from="1726368145" to="1726368161" numLanes="2" speed="19.44" />
	<edge id="160583648_252613673_1651728973_1726368161" from="1726368161" to="1726368046" numLanes="2" speed="19.44" />
	<edge id="160583648_252613673_1651728973_1726368046" from="1726368046" to="1726368071" numLanes="2" speed="19.44" />
	<edge id="160583648_252613673_1651728973_1726368071" from="1726368071" to="1726368048" numLanes="2" speed="19.44" />
	<edge id="160583648_252613673_1651728973_1726368048" from="1726368048" to="1726368098" numLanes="2" speed="19.44" />
	<edge id="160583648_252613673_1651728973_1726368098" from="1726368098" to="1726368095" numLanes="2" speed="19.44" />
	<edge id="160583648_252613673_1651728973_1726368095" from="1726368095" to="1726368036" numLanes="2" speed="19.44" />
	<edge id="160583648_252613673_1651728973_1726368036" from="1726368036" to="1726368117" numLanes="2" speed="19.44" />
	<edge id="160583648_252613673_1651728973_1726368117" from="1726368117" to="1726368132" numLanes="2" speed="19.44" />
	<edge id="160583648_252613673_1651728973_1726368132" from="1726368132" to="1726368188" numLanes="2" speed="19.44" />
	<edge id="160583648_252613673_1651728973_1726368188" from="1726368188" to="1726368025" numLanes="2" speed="19.44" />
	<edge id="160583648_252613673_1651728973_1726368025" from="1726368025" to="1726368133" numLanes="2" speed="19.44" />
	<edge id="160583648_252613673_1651728973_1726368133" from="1726368133" to="1726368165" numLanes="2" speed="19.44" />
	<edge id="160583648_252613673_1651728973_1726368165" from="1726368165" to="1726368147" numLanes="2" speed="19.44" />
	<edge id="160583648_252613673_1651728973_1726368147" from="1726368147" to="1726368094" numLanes="2" speed="19.44" />
	<edge id="160583648_252613673_1651728973_1726368094" from="1726368094" to="1726368112" numLanes="2" speed="19.44" />
	<edge id="160583648_252613673_1651728973_1726368112" from="1726368112" to="1726368028" numLanes="2" speed="19.44" />
	<edge id="160583648_252613673_1651728973_1726368028" from="1726368028" to="1651728973" numLanes="2" speed="19.44" />
	<edge id="152349105_1651728973_1651729342_1651728973" from="1651728973" to="1651729372" numLanes="2" speed="18.06" />
	<edge id="152349105_1651728973_1651729342_1651729372" from="1651729372" to="1651730005" numLanes="2" speed="18.06" />
	<edge id="152349105_1651728973_1651729342_1651730005" from="1651730005" to="1651729071" numLanes="2" speed="18.06" />
	<edge id="152349105_1651728973_1651729342_1651729071" from="1651729071" to="5439750776" numLanes="2" speed="18.06" />
	<edge id="152349105_1651728973_1651729342_5439750776" from="5439750776" to="1651729342" numLanes="2" speed="18.06" />
	<edge id="169093845_1651729419_1651728902_1651729419" from="1651729419" to="1667482185" numLanes="2" speed="33.33" />
	<edge id="169093845_1651729419_1651728902_1667482185" from="1667482185" to="1667481935" numLanes="2" speed="33.33" />
	<edge id="169093845_1651729419_1651728902_1667481935" from="1667481935" to="1667481353" numLanes="2" speed="33.33" />
	<edge id="169093845_1651729419_1651728902_1667481353" from="1667481353" to="1651728902" numLanes="2" speed="33.33" />
	<edge id="161823700_1651728643_1651729399_1651728643" from="1651728643" to="1651729627" numLanes="2" speed="33.33" />
	<edge id="161823700_1651728643_1651729399_1651729627" from="1651729627" to="1651730222" numLanes="2" speed="33.33" />
	<edge id="161823700_1651728643_1651729399_1651730222" from="1651730222" to="3957485252" numLanes="2" speed="33.33" />
	<edge id="161823700_1651728643_1651729399_3957485252" from="3957485252" to="3957485250" numLanes="2" speed="33.33" />
	<edge id="161823700_1651728643_1651729399_3957485250" from="3957485250" to="1651729005" numLanes="2" speed="33.33" />
	<edge id="161823700_1651728643_1651729399_1651729005" from="1651729005" to="1651729399" numLanes="2" speed="33.33" />
	<edge id="160583633_1651729772_2379319664_1651729772" from="1651729772" to="1651730266" numLanes="1" speed="16.67" />
	<edge id="160583633_1651729772_2379319664_1651730266" from="1651730266" to="3957516630" numLanes="1" speed="16.67" />
	<edge id="160583633_1651729772_2379319664_3957516630" from="3957516630" to="4868825230" numLanes="1" speed="16.67" />
	<edge id="160583633_1651729772_2379319664_4868825230" from="4868825230" to="1651729268" numLanes="1" speed="16.67" />
	<edge id="160583633_1651729772_2379319664_1651729268" from="1651729268" to="4868825226" numLanes="1" speed="16.67" />
	<edge id="160583633_1651729772_2379319664_4868825226" from="4868825226" to="2379319664" numLanes="1" speed="16.67" />
	<edge id="184159084_1651729532_1651729772_1651729532" from="1651729532" to="1651729772" numLanes="1" speed="19.44" />
	<edge id="160583631_1651729342_1726368081_1651729342" from="1651729342" to="1726368051" numLanes="2" speed="19.44" />
	<edge id="160583631_1651729342_1726368081_1726368051" from="1726368051" to="1726368126" numLanes="2" speed="19.44" />
	<edge id="160583631_1651729342_1726368081_1726368126" from="1726368126" to="1726368081" numLanes="2" speed="19.44" />
	<edge id="184159079_1651729568_1651728902_1651729568" from="1651729568" to="1651730077" numLanes="1" speed="19.44" />
	<edge id="184159079_1651729568_1651728902_1651730077" from="1651730077" to="1651728663" numLanes="1" speed="19.44" />
	<edge id="184159079_1651729568_1651728902_1651728663" from="1651728663" to="1651729933" numLanes="1" speed="19.44" />
	<edge id="184159079_1651729568_1651728902_1651729933" from="1651729933" to="1651730202" numLanes="1" speed="19.44" />
	<edge id="184159079_1651729568_1651728902_1651730202" from="1651730202" to="1651728977" numLanes="1" speed="19.44" />
	<edge id="184159079_1651729568_1651728902_1651728977" from="1651728977" to="1651729322" numLanes="1" speed="19.44" />
	<edge id="184159079_1651729568_1651728902_1651729322" from="1651729322" to="1651729328" numLanes="1" speed="19.44" />
	<edge id="184159079_1651729568_1651728902_1651729328" from="1651729328" to="1651728710" numLanes="1" speed="19.44" />
	<edge id="184159079_1651729568_1651728902_1651728710" from="1651728710" to="1651730187" numLanes="1" speed="19.44" />
	<edge id="184159079_1651729568_1651728902_1651730187" from="1651730187" to="1651729262" numLanes="1" speed="19.44" />
	<edge id="184159079_1651729568_1651728902_1651729262" from="1651729262" to="1651729800" numLanes="1" speed="19.44" />
	<edge id="184159079_1651729568_1651728902_1651729800" from="1651729800" to="1651729210" numLanes="1" speed="19.44" />
	<edge id="184159079_1651729568_1651728902_1651729210" from="1651729210" to="1651728793" numLanes="1" speed="19.44" />
	<edge id="184159079_1651729568_1651728902_1651728793" from="1651728793" to="1651729171" numLanes="1" speed="19.44" />
	<edge id="184159079_1651729568_1651728902_1651729171" from="1651729171" to="1651730051" numLanes="1" speed="19.44" />
	<edge id="184159079_1651729568_1651728902_1651730051" from="1651730051" to="1651730190" numLanes="1" speed="19.44" />
	<edge id="184159079_1651729568_1651728902_1651730190" from="1651730190" to="1651730007" numLanes="1" speed="19.44" />
	<edge id="184159079_1651729568_1651728902_1651730007" from="1651730007" to="1651728902" numLanes="1" speed="19.44" />
	<edge id="152349105_1651728718_1651728973_1651728718" from="1651728718" to="1651728973" numLanes="2" speed="18.06" />
	<edge id="152349122_1651728918_1651728673_1651728918" from="1651728918" to="1651730177" numLanes="1" speed="13.89" />
	<edge id="152349122_1651728918_1651728673_1651730177" from="1651730177" to="1651728950" numLanes="1" speed="13.89" />
	<edge id="152349122_1651728918_1651728673_1651728950" from="1651728950" to="1651729793" numLanes="1" speed="13.89" />
	<edge id="152349122_1651728918_1651728673_1651729793" from="1651729793" to="1651728714" numLanes="1" speed="13.89" />
	<edge id="152349122_1651728918_1651728673_1651728714" from="1651728714" to="1651729860" numLanes="1" speed="13.89" />
	<edge id="152349122_1651728918_1651728673_1651729860" from="1651729860" to="1651730114" numLanes="1" speed="13.89" />
	<edge id="152349122_1651728918_1651728673_1651730114" from="1651730114" to="1651729393" numLanes="1" speed="13.89" />
	<edge id="152349122_1651728918_1651728673_1651729393" from="1651729393" to="1651729993" numLanes="1" speed="13.89" />
	<edge id="152349122_1651728918_1651728673_1651729993" from="1651729993" to="1651729072" numLanes="1" speed="13.89" />
	<edge id="152349122_1651728918_1651728673_1651729072" from="1651729072" to="1651729073" numLanes="1" speed="13.89" />
	<edge id="152349122_1651728918_1651728673_1651729073" from="1651729073" to="1651729237" numLanes="1" speed="13.89" />
	<edge id="152349122_1651728918_1651728673_1651729237" from="1651729237" to="1651728673" numLanes="1" speed="13.89" />
	<edge id="160583642_1726368081_1651729399_1726368081" from="1726368081" to="1726368054" numLanes="1" speed="19.44" />
	<edge id="160583642_1726368081_1651729399_1726368054" from="1726368054" to="1651729508" numLanes="1" speed="19.44" />
	<edge id="160583642_1726368081_1651729399_1651729508" from="1651729508" to="1651729204" numLanes="1" speed="19.44" />
	<edge id="160583642_1726368081_1651729399_1651729204" from="1651729204" to="1651729436" numLanes="1" speed="19.44" />
	<edge id="160583642_1726368081_1651729399_1651729436" from="1651729436" to="1651729790" numLanes="1" speed="19.44" />
	<edge id="160583642_1726368081_1651729399_1651729790" from="1651729790" to="1651729400" numLanes="1" speed="19.44" />
	<edge id="160583642_1726368081_1651729399_1651729400" from="1651729400" to="1651729395" numLanes="1" speed="19.44" />
	<edge id="160583642_1726368081_1651729399_1651729395" from="1651729395" to="1651729498" numLanes="1" speed="19.44" />
	<edge id="160583642_1726368081_1651729399_1651729498" from="1651729498" to="1651729075" numLanes="1" speed="19.44" />
	<edge id="160583642_1726368081_1651729399_1651729075" from="1651729075" to="1651729965" numLanes="1" speed="19.44" />
	<edge id="160583642_1726368081_1651729399_1651729965" from="1651729965" to="1651729165" numLanes="1" speed="19.44" />
	<edge id="160583642_1726368081_1651729399_1651729165" from="1651729165" to="5439750772" numLanes="1" speed="19.44" />
	<edge id="160583642_1726368081_1651729399_5439750772" from="5439750772" to="1651729399" numLanes="1" speed="19.44" />
	<edge id="160583635_1726368104_1726349626_1726368104" from="1726368104" to="1726368078" numLanes="2" speed="19.44" />
	<edge id="160583635_1726368104_1726349626_1726368078" from="1726368078" to="1726368043" numLanes="2" speed="19.44" />
	<edge id="160583635_1726368104_1726349626_1726368043" from="1726368043" to="1726368097" numLanes="2" speed="19.44" />
	<edge id="160583635_1726368104_1726349626_1726368097" from="1726368097" to="1726368111" numLanes="2" speed="19.44" />
	<edge id="160583635_1726368104_1726349626_1726368111" from="1726368111" to="1726368080" numLanes="2" speed="19.44" />
	<edge id="160583635_1726368104_1726349626_1726368080" from="1726368080" to="1726368062" numLanes="2" speed="19.44" />
	<edge id="160583635_1726368104_1726349626_1726368062" from="1726368062" to="1726368020" numLanes="2" speed="19.44" />
	<edge id="160583635_1726368104_1726349626_1726368020" from="1726368020" to="1726368108" numLanes="2" speed="19.44" />
	<edge id="160583635_1726368104_1726349626_1726368108" from="1726368108" to="1726368075" numLanes="2" speed="19.44" />
	<edge id="160583635_1726368104_1726349626_1726368075" from="1726368075" to="1726368072" numLanes="2" speed="19.44" />
	<edge id="160583635_1726368104_1726349626_1726368072" from="1726368072" to="1726368089" numLanes="2" speed="19.44" />
	<edge id="160583635_1726368104_1726349626_1726368089" from="1726368089" to="1726368129" numLanes="2" speed="19.44" />
	<edge id="160583635_1726368104_1726349626_1726368129" from="1726368129" to="1726368041" numLanes="2" speed="19.44" />
	<edge id="160583635_1726368104_1726349626_1726368041" from="1726368041" to="1726368085" numLanes="2" speed="19.44" />
	<edge id="160583635_1726368104_1726349626_1726368085" from="1726368085" to="1726368044" numLanes="2" speed="19.44" />
	<edge id="160583635_1726368104_1726349626_1726368044" from="1726368044" to="1726368049" numLanes="2" speed="19.44" />
	<edge id="160583635_1726368104_1726349626_1726368049" from="1726368049" to="1726368169" numLanes="2" speed="19.44" />
	<edge id="160583635_1726368104_1726349626_1726368169" from="1726368169" to="1726368039" numLanes="2" speed="19.44" />
	<edge id="160583635_1726368104_1726349626_1726368039" from="1726368039" to="1726368070" numLanes="2" speed="19.44" />