<connections>
	<connection from="152349105_1726368104_1651728718_1726368104" to="152349105_1726368104_1651728718_1651730008" />
	<connection from="152349105_1726368104_1651728718_1651730008" to="152349105_1726368104_1651728718_1651729649" />
	<connection from="152349105_1726368104_1651728718_1651729649" to="152349105_1726368104_1651728718_1651730181" />
	<connection from="152349105_1726368104_1651728718_1651730181" to="152349105_1651728718_1651728973_1651728718" />
	<connection from="169093845_1667482072_1651729419_1667482072" to="169093845_1667482072_1651729419_5439750775" />
	<connection from="169093845_1667482072_1651729419_5439750775" to="169093845_1667482072_1651729419_1667482269" />
	<connection from="169093845_1667482072_1651729419_1667482269" to="152349087_1651729419_1651729532_1651729419" />
	<connection from="169093845_1667482072_1651729419_1667482269" to="169093845_1651729419_1651728902_1651729419" />
	<connection from="152349122_1651728673_1651728918_1651728673" to="152349122_1651728673_1651728918_1651729237" />
	<connection from="152349122_1651728673_1651728918_1651729237" to="152349122_1651728673_1651728918_1651729073" />
	<connection from="152349122_1651728673_1651728918_1651729073" to="152349122_1651728673_1651728918_1651729072" />
	<connection from="152349122_1651728673_1651728918_1651729072" to="152349122_1651728673_1651728918_1651729993" />
	<connection from="152349122_1651728673_1651728918_1651729993" to="152349122_1651728673_1651728918_1651729393" />
	<connection from="152349122_1651728673_1651728918_1651729393" to="152349122_1651728673_1651728918_1651730114" />
	<connection from="152349122_1651728673_1651728918_1651730114" to="152349122_1651728673_1651728918_1651729860" />
	<connection from="152349122_1651728673_1651728918_1651729860" to="152349122_1651728673_1651728918_1651728714" />
	<connection from="152349122_1651728673_1651728918_1651728714" to="152349122_1651728673_1651728918_1651729793" />
	<connection from="152349122_1651728673_1651728918_1651729793" to="152349122_1651728673_1651728918_1651728950" />
	<connection from="152349122_1651728673_1651728918_1651728950" to="152349122_1651728673_1651728918_1651730177" />
	<connection from="152349122_1651728673_1651728918_1651730177" to="152349105_1651728918_1726368104_1651728918" />
	<connection from="152349122_1651728673_1651728918_1651730177" to="152349122_1651728918_1651728673_1651728918" />
	<connection from="152349105_1651729342_1651730185_1651729342" to="152349105_1651729342_1651730185_1651730164" />
	<connection from="152349105_1651729342_1651730185_1651730164" to="152349105_1651729342_1651730185_1651730294" />
	<connection from="152349105_1651729342_1651730185_1651730294" to="152349105_1651730185_1651728918_1651730185" />
	<connection from="152349087_1651729419_1651729532_1651729419" to="152349087_1651729419_1651729532_5439750770" />
	<connection from="152349087_1651729419_1651729532_5439750770" to="152349087_1651729419_1651729532_5439750771" />
	<connection from="152349087_1651729419_1651729532_5439750771" to="152349087_1651729419_1651729532_1651729047" />
	<connection from="152349087_1651729419_1651729532_1651729047" to="152349087_1651729419_1651729532_1651729424" />
	<connection from="152349087_1651729419_1651729532_1651729424" to="152349087_1651729419_1651729532_1651730188" />
	<connection from="152349087_1651729419_1651729532_1651730188" to="152349087_1651729419_1651729532_1651730097" />
	<connection from="152349087_1651729419_1651729532_1651730097" to="152349087_1651729419_1651729532_1651729045" />
	<connection from="152349087_1651729419_1651729532_1651729045" to="152349087_1651729419_1651729532_1651730141" />
	<connection from="152349087_1651729419_1651729532_1651730141" to="152349087_1651729419_1651729532_1651730210" />
	<connection from="152349087_1651729419_1651729532_1651730210" to="152349087_1651729419_1651729532_1651728631" />
	<connection from="152349087_1651729419_1651729532_1651728631" to="152349087_1651729419_1651729532_1651729245" />
	<connection from="152349087_1651729419_1651729532_1651729245" to="152349087_1651729419_1651729532_1651729079" />
	<connection from="152349087_1651729419_1651729532_1651729079" to="152349087_1651729419_1651729532_1651729190" />
	<connection from="152349087_1651729419_1651729532_1651729190" to="152349087_1651729419_1651729532_1651729049" />
	<connection from="152349087_1651729419_1651729532_1651729049" to="152349087_1651729419_1651729532_1651730261" />
	<connection from="152349087_1651729419_1651729532_1651730261" to="152349087_1651729419_1651729532_1651730257" />
	<connection from="152349087_1651729419_1651729532_1651730257" to="184159084_1651729532_1651729772_1651729532" />
	<connection from="160583636_2379319664_1651730185_2379319664" to="160583636_2379319664_1651730185_1726368053" />
	<connection from="160583636_2379319664_1651730185_1726368053" to="160583636_2379319664_1651730185_1726368064" />
	<connection from="160583636_2379319664_1651730185_1726368064" to="160583636_2379319664_1651730185_1726368077" />
	<connection from="160583636_2379319664_1651730185_1726368077" to="152349105_1651730185_1651728918_1651730185" />
	<connection from="161823700_1651729399_1651730260_1651729399" to="161823700_1651729399_1651730260_1651730138" />
	<connection from="161823700_1651729399_1651730260_1651730138" to="161823700_1651729399_1651730260_5439750774" />
	<connection from="160583649_1726368081_1651728701_1726368081" to="160583649_1726368081_1651728701_1726368139" />
	<connection from="160583649_1726368081_1651728701_1726368139" to="160583649_1726368081_1651728701_1651729999" />
	<connection from="160583649_1726368081_1651728701_1651729999" to="160583649_1726368081_1651728701_1651729194" />
	<connection from="160583649_1726368081_1651728701_1651729194" to="160583649_1726368081_1651728701_3957516629" />
	<connection from="160583649_1726368081_1651728701_3957516629" to="160583649_1726368081_1651728701_1651728716" />
	<connection from="160583649_1726368081_1651728701_1651728716" to="184159080_1651728701_1651729568_1651728701" />
	<connection from="152349098_1651728643_2379319664_1651728643" to="152349098_1651728643_2379319664_1651729488" />
	<connection from="152349098_1651728643_2379319664_1651729488" to="152349098_1651728643_2379319664_1651729258" />
	<connection from="152349098_1651728643_2379319664_1651729258" to="152349098_1651728643_2379319664_1651729074" />
	<connection from="152349098_1651728643_2379319664_1651729074" to="152349098_1651728643_2379319664_1651729050" />
	<connection from="152349098_1651728643_2379319664_1651729050" to="152349098_1651728643_2379319664_1651729038" />
	<connection from="152349098_1651728643_2379319664_1651729038" to="152349098_1651728643_2379319664_1651729738" />
	<connection from="152349098_1651728643_2379319664_1651729738" to="152349098_1651728643_2379319664_1651730161" />
	<connection from="152349098_1651728643_2379319664_1651730161" to="152349098_1651728643_2379319664_4868825224" />
	<connection from="152349098_1651728643_2379319664_4868825224" to="152349098_1651728643_2379319664_4868825225" />
	<connection from="152349098_1651728643_2379319664_4868825225" to="152349098_1651728643_2379319664_4868825229" />
	<connection from="152349098_1651728643_2379319664_4868825229" to="152349098_1651728643_2379319664_4868825228" />
	<connection from="152349098_1651728643_2379319664_4868825228" to="152349098_1651728643_2379319664_4868825227" />
	<connection from="152349098_1651728643_2379319664_4868825227" to="160583636_2379319664_1651730185_2379319664" />
	<connection from="161823700_91778082_1651728643_91778082" to="161823700_91778082_1651728643_2068119213" />
	<connection from="161823700_91778082_1651728643_2068119213" to="161823700_91778082_1651728643_2068119187" />
	<connection from="161823700_91778082_1651728643_2068119187" to="161823700_91778082_1651728643_5439750721" />
	<connection from="161823700_91778082_1651728643_5439750721" to="161823700_91778082_1651728643_2068119254" />
	<connection from="161823700_91778082_1651728643_2068119254" to="161823700_91778082_1651728643_3418594918" />
	<connection from="161823700_91778082_1651728643_3418594918" to="161823700_91778082_1651728643_5439750723" />
	<connection from="161823700_91778082_1651728643_5439750723" to="161823700_91778082_1651728643_2068119190" />
	<connection from="161823700_91778082_1651728643_2068119190" to="161823700_91778082_1651728643_2068119198" />
	<connection from="161823700_91778082_1651728643_2068119198" to="161823700_91778082_1651728643_5439750726" />
	<connection from="161823700_91778082_1651728643_5439750726" to="161823700_91778082_1651728643_2068119199" />
	<connection from="161823700_91778082_1651728643_2068119199" to="161823700_91778082_1651728643_2068119252" />
	<connection from="161823700_91778082_1651728643_2068119252" to="161823700_91778082_1651728643_5439750727" />
	<connection from="161823700_91778082_1651728643_5439750727" to="161823700_91778082_1651728643_2068119185" />
	<connection from="161823700_91778082_1651728643_2068119185" to="161823700_91778082_1651728643_2068119224" />
	<connection from="161823700_91778082_1651728643_2068119224" to="161823700_91778082_1651728643_2068119234" />
	<connection from="161823700_91778082_1651728643_2068119234" to="161823700_91778082_1651728643_1837508013" />
	<connection from="161823700_91778082_1651728643_1837508013" to="161823700_91778082_1651728643_3418593893" />
	<connection from="161823700_91778082_1651728643_3418593893" to="161823700_91778082_1651728643_1667481450" />
	<connection from="161823700_91778082_1651728643_1667481450" to="161823700_91778082_1651728643_1667482282" />
	<connection from="161823700_91778082_1651728643_1667482282" to="161823700_91778082_1651728643_5439750730" />
	<connection from="161823700_91778082_1651728643_5439750730" to="161823700_91778082_1651728643_1667482277" />
	<connection from="161823700_91778082_1651728643_1667482277" to="161823700_91778082_1651728643_5439750731" />
	<connection from="161823700_91778082_1651728643_5439750731" to="161823700_91778082_1651728643_1667482173" />
	<connection from="161823700_91778082_1651728643_1667482173" to="161823700_91778082_1651728643_5439750733" />
	<connection from="161823700_91778082_1651728643_5439750733" to="161823700_91778082_1651728643_1667481398" />
	<connection from="161823700_91778082_1651728643_1667481398" to="161823700_91778082_1651728643_5439750735" />
	<connection from="161823700_91778082_1651728643_5439750735" to="161823700_91778082_1651728643_1667481396" />
	<connection from="161823700_91778082_1651728643_1667481396" to="161823700_91778082_1651728643_1837508014" />
	<connection from="161823700_91778082_1651728643_1837508014" to="161823700_91778082_1651728643_3418593894" />
	<connection from="161823700_91778082_1651728643_3418593894" to="161823700_91778082_1651728643_1837507989" />
	<connection from="161823700_91778082_1651728643_1837507989" to="161823700_91778082_1651728643_1667481399" />
	<connection from="161823700_91778082_1651728643_1667481399" to="161823700_91778082_1651728643_1667482188" />
	<connection from="161823700_91778082_1651728643_1667482188" to="161823700_91778082_1651728643_5439750763" />
	<connection from="161823700_91778082_1651728643_5439750763" to="161823700_91778082_1651728643_1667481864" />
	<connection from="161823700_91778082_1651728643_1667481864" to="161823700_91778082_1651728643_1667481337" />
	<connection from="161823700_91778082_1651728643_1667481337" to="161823700_91778082_1651728643_1667481996" />
	<connection from="161823700_91778082_1651728643_1667481996" to="161823700_91778082_1651728643_1667481618" />
	<connection from="161823700_91778082_1651728643_1667481618" to="161823700_91778082_1651728643_5439750765" />
	<connection from="161823700_91778082_1651728643_5439750765" to="161823700_91778082_1651728643_1667481446" />
	<connection from="161823700_91778082_1651728643_1667481446" to="161823700_91778082_1651728643_1667481443" />
	<connection from="161823700_91778082_1651728643_1667481443" to="161823700_91778082_1651728643_1667481818" />
	<connection from="161823700_91778082_1651728643_1667481818" to="161823700_91778082_1651728643_1651730200" />
	<connection from="161823700_91778082_1651728643_1651730200" to="161823700_91778082_1651728643_1651729583" />
	<connection from="161823700_91778082_1651728643_1651729583" to="161823700_91778082_1651728643_1651728777" />
	<connection from="161823700_91778082_1651728643_1651728777" to="161823700_91778082_1651728643_1651729465" />
	<connection from="161823700_91778082_1651728643_1651729465" to="161823700_91778082_1651728643_3957485253" />
	<connection from="161823700_91778082_1651728643_3957485253" to="152349098_1651728643_2379319664_1651728643" />
	<connection from="161823700_91778082_1651728643_3957485253" to="161823700_1651728643_1651729399_1651728643" />
	<connection from="160583648_252613673_1651728973_252613673" to="160583648_252613673_1651728973_1726349604" />
	<connection from="160583648_252613673_1651728973_1726349604" to="160583648_252613673_1651728973_1726349765" />
	<connection from="160583648_252613673_1651728973_1726349765" to="160583648_252613673_1651728973_1726349770" />
	<connection from="160583648_252613673_1651728973_1726349770" to="160583648_252613673_1651728973_1726349711" />
	<connection from="160583648_252613673_1651728973_1726349711" to="160583648_252613673_1651728973_1726349638" />
	<connection from="160583648_252613673_1651728973_1726349638" to="160583648_252613673_1651728973_1726349670" />
	<connection from="160583648_252613673_1651728973_1726349670" to="160583648_252613673_1651728973_1726349666" />
	<connection from="160583648_252613673_1651728973_1726349666" to="160583648_252613673_1651728973_1726349664" />
	<connection from="160583648_252613673_1651728973_1726349664" to="160583648_252613673_1651728973_1726349704" />
	<connection from="160583648_252613673_1651728973_1726349704" to="160583648_252613673_1651728973_1726349612" />
	<connection from="160583648_252613673_1651728973_1726349612" to="160583648_252613673_1651728973_1726349634" />
	<connection from="160583648_252613673_1651728973_1726349634" to="160583648_252613673_1651728973_1726349559" />
	<connection from="160583648_252613673_1651728973_1726349559" to="160583648_252613673_1651728973_1726349625" />
	<connection from="160583648_252613673_1651728973_1726349625" to="160583648_252613673_1651728973_1726349719" />
	<connection from="160583648_252613673_1651728973_1726349719" to="160583648_252613673_1651728973_1726349694" />
	<connection from="160583648_252613673_1651728973_1726349694" to="160583648_252613673_1651728973_1726349503" />
	<connection from="160583648_252613673_1651728973_1726349503" to="160583648_252613673_1651728973_1726349504" />
	<connection from="160583648_252613673_1651728973_1726349504" to="160583648_252613673_1651728973_1726349761" />
	<connection from="160583648_252613673_1651728973_1726349761" to="160583648_252613673_1651728973_1726349643" />
	<connection from="160583648_252613673_1651728973_1726349643" to="160583648_252613673_1651728973_1726368059" />
	<connection from="160583648_252613673_1651728973_1726368059" to="160583648_252613673_1651728973_1726368060" />
	<connection from="160583648_252613673_1651728973_1726368060" to="160583648_252613673_1651728973_1726368137" />
	<connection from="160583648_252613673_1651728973_1726368137" to="160583648_252613673_1651728973_1726368031" />
	<connection from="160583648_252613673_1651728973_1726368031" to="160583648_252613673_1651728973_1726368190" />
	<connection from="160583648_252613673_1651728973_1726368190" to="160583648_252613673_1651728973_1726368086" />
	<connection from="160583648_252613673_1651728973_1726368086" to="160583648_252613673_1651728973_1726368076" />
	<connection from="160583648_252613673_1651728973_1726368076" to="160583648_252613673_1651728973_1726368040" />
	<connection from="160583648_252613673_1651728973_1726368040" to="160583648_252613673_1651728973_1726368035" />
	<connection from="160583648_252613673_1651728973_1726368035" to="160583648_252613673_1651728973_1726368146" />
	<connection from="160583648_252613673_1651728973_1726368146" to="160583648_252613673_1651728973_1726368143" />
	<connection from="160583648_252613673_1651728973_1726368143" to="160583648_252613673_1651728973_1726368141" />
	<connection from="160583648_252613673_1651728973_1726368141" to="160583648_252613673_1651728973_1726368034" />
	<connection from="160583648_252613673_1651728973_1726368034" to="160583648_252613673_1651728973_1726368083" />
	<connection from="160583648_252613673_1651728973_1726368083" to="160583648_252613673_1651728973_1726368167" />
	<connection from="160583648_252613673_1651728973_1726368167" to="160583648_252613673_1651728973_1726368145" />
	<connection from="160583648_252613673_1651728973_1726368145" to="160583648_252613673_1651728973_1726368161" />
	<connection from="160583648_252613673_1651728973_1726368161" to="160583648_252613673_1651728973_1726368046" />
	<connection from="160583648_252613673_1651728973_1726368046" to="160583648_252613673_1651728973_1726368071" />
	<connection from="160583648_252613673_1651728973_1726368071" to="160583648_252613673_1651728973_1726368048" />
	<connection from="160583648_252613673_1651728973_1726368048" to="160583648_252613673_1651728973_1726368098" />
	<connection from="160583648_252613673_1651728973_1726368098" to="160583648_252613673_1651728973_1726368095" />
	<connection from="160583648_252613673_1651728973_1726368095" to="160583648_252613673_1651728973_1726368036" />
	<connection from="160583648_252613673_1651728973_1726368036" to="160583648_252613673_1651728973_1726368117" />
	<connection from="160583648_252613673_1651728973_1726368117" to="160583648_252613673_1651728973_1726368132" />
	<connection from="160583648_252613673_1651728973_1726368132" to="160583648_252613673_1651728973_1726368188" />
	<connection from="160583648_252613673_1651728973_1726368188" to="160583648_252613673_1651728973_1726368025" />
	<connection from="160583648_252613673_1651728973_1726368025" to="160583648_252613673_1651728973_1726368133" />
	<connection from="160583648_252613673_1651728973_1726368133" to="160583648_252613673_1651728973_1726368165" />
	<connection from="160583648_252613673_1651728973_1726368165" to="160583648_252613673_1651728973_1726368147" />
	<connection from="160583648_252613673_1651728973_1726368147" to="160583648_252613673_1651728973_1726368094" />
	<connection from="160583648_252613673_1651728973_1726368094" to="160583648_252613673_1651728973_1726368112" />
	<connection from="160583648_252613673_1651728973_1726368112" to="160583648_252613673_1651728973_1726368028" />
	<connection from="160583648_252613673_1651728973_1726368028" to="152349105_1651728973_1651729342_1651728973" />
	<connection from="152349105_1651728973_1651729342_1651728973" to="152349105_1651728973_1651729342_1651729372" />
	<connection from="152349105_1651728973_1651729342_1651729372" to="152349105_1651728973_1651729342_1651730005" />
	<connection from="152349105_1651728973_1651729342_1651730005" to="152349105_1651728973_1651729342_1651729071" />
	<connection from="152349105_1651728973_1651729342_1651729071" to="152349105_1651728973_1651729342_5439750776" />
	<connection from="152349105_1651728973_1651729342_5439750776" to="160583631_1651729342_1726368081_1651729342" />
	<connection from="152349105_1651728973_1651729342_5439750776" to="152349105_1651729342_1651730185_1651729342" />
	<connection from="169093845_1651729419_1651728902_1651729419" to="169093845_1651729419_1651728902_1667482185" />
	<connection from="169093845_1651729419_1651728902_1667482185" to="169093845_1651729419_1651728902_1667481935" />
	<connection from="169093845_1651729419_1651728902_1667481935" to="169093845_1651729419_1651728902_1667481353" />
	<connection from="169093845_1651729419_1651728902_1667481353" to="169093845_1651728902_1667481610_1651728902" />
	<connection from="161823700_1651728643_1651729399_1651728643" to="161823700_1651728643_1651729399_1651729627" />
	<connection from="161823700_1651728643_1651729399_1651729627" to="161823700_1651728643_1651729399_1651730222" />
	<connection from="161823700_1651728643_1651729399_1651730222" to="161823700_1651728643_1651729399_3957485252" />
	<connection from="161823700_1651728643_1651729399_3957485252" to="161823700_1651728643_1651729399_3957485250" />
	<connection from="161823700_1651728643_1651729399_3957485250" to="161823700_1651728643_1651729399_1651729005" />
	<connection from="161823700_1651728643_1651729399_1651729005" to="161823700_1651729399_1651730260_1651729399" />
	<connection from="160583633_1651729772_2379319664_1651729772" to="160583633_1651729772_2379319664_1651730266" />
	<connection from="160583633_1651729772_2379319664_1651730266" to="160583633_1651729772_2379319664_3957516630" />
	<connection from="160583633_1651729772_2379319664_3957516630" to="160583633_1651729772_2379319664_4868825230" />
	<connection from="160583633_1651729772_2379319664_4868825230" to="160583633_1651729772_2379319664_1651729268" />
	<connection from="160583633_1651729772_2379319664_1651729268" to="160583633_1651729772_2379319664_4868825226" />
	<connection from="160583633_1651729772_2379319664_4868825226" to="160583636_2379319664_1651730185_2379319664" />
	<connection from="184159084_1651729532_1651729772_1651729532" to="160583633_1651729772_2379319664_1651729772" />
	<connection from="160583631_1651729342_1726368081_1651729342" to="160583631_1651729342_1726368081_1726368051" />
	<connection from="160583631_1651729342_1726368081_1726368051" to="160583631_1651729342_1726368081_1726368126" />
	<connection from="160583631_1651729342_1726368081_1726368126" to="160583649_1726368081_1651728701_1726368081" />
	<connection from="160583631_1651729342_1726368081_1726368126" to="160583642_1726368081_1651729399_1726368081" />
	<connection from="184159079_1651729568_1651728902_1651729568" to="184159079_1651729568_1651728902_1651730077" />
	<connection from="184159079_1651729568_1651728902_1651730077" to="184159079_1651729568_1651728902_1651728663" />
	<connection from="184159079_1651729568_1651728902_1651728663" to="184159079_1651729568_1651728902_1651729933" />
	<connection from="184159079_1651729568_1651728902_1651729933" to="184159079_1651729568_1651728902_1651730202" />
	<connection from="184159079_1651729568_1651728902_1651730202" to="184159079_1651729568_1651728902_1651728977" />
	<connection from="184159079_1651729568_1651728902_1651728977" to="184159079_1651729568_1651728902_1651729322" />
	<connection from="184159079_1651729568_1651728902_1651729322" to="184159079_1651729568_1651728902_1651729328" />
	<connection from="184159079_1651729568_1651728902_1651729328" to="184159079_1651729568_1651728902_1651728710" />
	<connection from="184159079_1651729568_1651728902_1651728710" to="184159079_1651729568_1651728902_1651730187" />
	<connection from="184159079_1651729568_1651728902_1651730187" to="184159079_1651729568_1651728902_1651729262" />
	<connection from="184159079_1651729568_1651728902_1651729262" to="184159079_1651729568_1651728902_1651729800" />
	<connection from="184159079_1651729568_1651728902_1651729800" to="184159079_1651729568_1651728902_1651729210" />
	<connection from="184159079_1651729568_1651728902_1651729210" to="184159079_1651729568_1651728902_1651728793" />
	<connection from="184159079_1651729568_1651728902_1651728793" to="184159079_1651729568_1651728902_1651729171" />
	<connection from="184159079_1651729568_1651728902_1651729171" to="184159079_1651729568_1651728902_1651730051" />
	<connection from="184159079_1651729568_1651728902_1651730051" to="184159079_1651729568_1651728902_1651730190" />
	<connection from="184159079_1651729568_1651728902_1651730190" to="184159079_1651729568_1651728902_1651730007" />
	<connection from="184159079_1651729568_1651728902_1651730007" to="169093845_1651728902_1667481610_1651728902" />
	<connection from="152349105_1651728718_1651728973_1651728718" to="152349105_1651728973_1651729342_1651728973" />
	<connection from="152349122_1651728918_1651728673_1651728918" to="152349122_1651728918_1651728673_1651730177" />
	<connection from="152349122_1651728918_1651728673_1651730177" to="152349122_1651728918_1651728673_1651728950" />
	<connection from="152349122_1651728918_1651728673_1651728950" to="152349122_1651728918_1651728673_1651729793" />
	<connection from="152349122_1651728918_1651728673_1651729793" to="152349122_1651728918_1651728673_1651728714" />
	<connection from="152349122_1651728918_1651728673_1651728714" to="152349122_1651728918_1651728673_1651729860" />
	<connection from="152349122_1651728918_1651728673_1651729860" to="152349122_1651728918_1651728673_1651730114" />
	<connection from="152349122_1651728918_1651728673_1651730114" to="152349122_1651728918_1651728673_1651729393" />
	<connection from="152349122_1651728918_1651728673_1651729393" to="152349122_1651728918_1651728673_1651729993" />
	<connection from="152349122_1651728918_1651728673_1651729993" to="152349122_1651728918_1651728673_1651729072" />
	<connection from="152349122_1651728918_1651728673_1651729072" to="152349122_1651728918_1651728673_1651729073" />
	<connection from="152349122_1651728918_1651728673_1651729073" to="152349122_1651728918_1651728673_1651729237" />
	<connection from="152349122_1651728918_1651728673_1651729237" to="152349122_1651728673_1651728918_1651728673" />
	<connection from="160583642_1726368081_1651729399_1726368081" to="160583642_1726368081_1651729399_1726368054" />
	<connection from="160583642_1726368081_1651729399_1726368054" to="160583642_1726368081_1651729399_1651729508" />
	<connection from="160583642_1726368081_1651729399_1651729508" to="160583642_1726368081_1651729399_1651729204" />
	<connection from="160583642_1726368081_1651729399_1651729204" to="160583642_1726368081_1651729399_1651729436" />
	<connection from="160583642_1726368081_1651729399_1651729436" to="160583642_1726368081_1651729399_1651729790" />
	<connection from="160583642_1726368081_1651729399_1651729790" to="160583642_1726368081_1651729399_1651729400" />
	<connection from="160583642_1726368081_1651729399_1651729400" to="160583642_1726368081_1651729399_1651729395" />
	<connection from="160583642_1726368081_1651729399_1651729395" to="160583642_1726368081_1651729399_1651729498" />
	<connection from="160583642_1726368081_1651729399_1651729498" to="160583642_1726368081_1651729399_1651729075" />
	<connection from="160583642_1726368081_1651729399_1651729075" to="160583642_1726368081_1651729399_1651729965" />
	<connection from="160583642_1726368081_1651729399_1651729965" to="160583642_1726368081_1651729399_1651729165" />
	<connection from="160583642_1726368081_1651729399_1651729165" to="160583642_1726368081_1651729399_5439750772" />
	<connection from="160583642_1726368081_1651729399_5439750772" to="161823700_1651729399_1651730260_1651729399" />
	<connection from="160583635_1726368104_1726349626_1726368104" to="160583635_1726368104_1726349626_1726368078" />
	<connection from="160583635_1726368104_1726349626_1726368078" to="160583635_1726368104_1726349626_1726368043" />
	<connection from="160583635_1726368104_1726349626_1726368043" to="160583635_1726368104_1726349626_1726368097" />
	<connection from="160583635_1726368104_1726349626_1726368097" to="160583635_1726368104_1726349626_1726368111" />
	<connection from="160583635_1726368104_1726349626_1726368111" to="160583635_1726368104_1726349626_1726368080" />
	<connection from="160583635_1726368104_1726349626_1726368080" to="160583635_1726368104_1726349626_1726368062" />
	<connection from="160583635_1726368104_1726349626_1726368062" to="160583635_1726368104_1726349626_1726368020" />
	<connection from="160583635_1726368104_1726349626_1726368020" to="160583635_1726368104_1726349626_1726368108" />
	<connection from="160583635_1726368104_1726349626_1726368108" to="160583635_1726368104_1726349626_1726368075" />
	<connection from="160583635_1726368104_1726349626_1726368075" to="160583635_1726368104_1726349626_1726368072" />
	<connection from="160583635_1726368104_1726349626_1726368072" to="160583635_1726368104_1726349626_1726368089" />
	<connection from="160583635_1726368104_1726349626_1726368089" to="160583635_1726368104_1726349626_1726368129" />
	<connection from="160583635_1726368104_1726349626_1726368129" to="160583635_1726368104_1726349626_1726368041" />
	<connection from="160583635_1726368104_1726349626_1726368041" to="160583635_1726368104_1726349626_1726368085" />
	<connection from="160583635_1726368104_1726349626_1726368085" to="160583635_1726368104_1726349626_1726368044" />
	<connection from="160583635_1726368104_1726349626_1726368044" to="160583635_1726368104_1726349626_1726368049" />
	<connection from="160583635_1726368104_1726349626_1726368049" to="160583635_1726368104_1726349626_1726368169" />
	<connection from="160583635_1726368104_1726349626_1726368169" to="160583635_1726368104_1726349626_1726368039" />
	<connection from="160583635_1726368104_1726349626_1726368039" to="160583635_1726368104_1726349626_1726368070" />
	<connection from="160583635_1726368104_1726349626_1726368070" to="160583635_1726368104_1726349626_1726368179" />
	<connection from="160583635_1726368104_1726349626_1726368179" to="160583635_1726368104_1726349626_1726368151" />
	<connection from="160583635_1726368104_1726349626_1726368151" to="160583635_1726368104_1726349626_1726368118" />
	<connection from="160583635_1726368104_1726349626_1726368118" to="160583635_1726368104_1726349626_1726368091" />
	<connection from="160583635_1726368104_1726349626_1726368091" to="160583635_1726368104_1726349626_1726368055" />
	<connection from="160583635_1726368104_1726349626_1726368055" to="160583635_1726368104_1726349626_1726368068" />
	<connection from="160583635_1726368104_1726349626_1726368068" to="160583635_1726368104_1726349626_1726368106" />
	<connection from="160583635_1726368104_1726349626_1726368106" to="160583635_1726368104_1726349626_1726368079" />