<?xml version="1.0" ?>
<!-- Generated by VSimRTI -->
<routes>
	<vType id="default" length="7.5" maxSpeed="50" minGap="2.0" carFollowModel="Krauss" accel="0.80" decel="4.5" sigma="0.5" tau="1"/>
	<route id="11" edges="21580836_213716377_518783835_5795604945 21580836_213716377_518783835_232346733 21580836_213716377_518783835_232346735 21580836_213716377_518783835_232346736 21580836_213716377_518783835_232346737 21580836_213716377_518783835_232346738 21580836_213716377_518783835_1589739779 21580836_518783835_1471211295_518783835 21580836_518783835_1471211295_1818310434 21580836_518783835_1471211295_232346739 21580836_1471211295_232348480_1471211295 321639540_232348480_232348481_232348480 321639541_232348481_232362059_232348481 321639541_232348481_232362059_2617728130 321639541_232348481_232362059_232348482 321639541_232348481_232362059_232348483 321639541_232348481_232362059_232348484 317809010_232362059_232348488_232362059 317809010_232362059_232348488_232348485 317809010_232362059_232348488_1604868804 317809010_232362059_232348488_232348486 317809010_232348488_1366649896_232348488 317809010_1366649896_232348498_1366649896 317809010_1366649896_232348498_232348491 317809010_1366649896_232348498_232348493 317809010_1366649896_232348498_232348495 21581146_232348498_1471211300_232348498 21581146_1471211300_512517255_1471211300 21581146_1471211300_512517255_232349201 41677251_512517255_512517267_512517255 41677260_512517267_1597707311_512517267 41677260_512517267_1597707311_1898376505 146484026_1597707311_1597707433_1597707311 146484026_1597707311_1597707433_1597707271 146484026_1597707311_1597707433_1597707416 146484026_1597707433_1597707311_1597707433 146484026_1597707433_1597707311_1597707416" />
	<route id="12" edges="146484026_1597707433_1597707311_1597707271 41677260_1597707311_512517267_1597707311 41677260_1597707311_512517267_1898376505 41677260_512517267_512516845_512517267 41677260_512517267_512516845_1229115232 41677260_512517267_512516845_1898376507 41677260_512517267_512516845_512517271 41677260_512517267_512516845_1898376492 41677260_512517267_512516845_1898376511 41677260_512516845_512517267_512516845 41677260_512516845_512517267_1898376511 41677260_512516845_512517267_1898376492 41677260_512516845_512517267_512517271 41677260_512516845_512517267_1898376507 41677260_512516845_512517267_1229115232" />
	<route id="13" edges="147256257_254120470_253420936_253420952 147256257_254120470_253420936_253420953 23407451_253420936_254120646_253420936 23407451_253420936_254120646_253420938 23407451_253420936_254120646_253420939 23407451_253420936_254120646_253420940 317809021_254120646_254120461_254120646 317809021_254120646_254120461_1604850588 23407463_254120461_1898125225_254120461 23407463_254120461_1898125225_1604850599 23407463_1898125225_253420925_1898125225 23407463_1898125225_253420925_253420969 23407463_1898125225_253420925_253420970 23407463_1898125225_253420925_253420971 23407463_1898125225_253420925_3122917539 23407443_253420925_518783851_253420925 23407443_518783851_253420926_518783851 23407443_518783851_253420926_5673759044 23407478_253420926_1471211282_253420926 23407478_253420926_1471211282_1207489118 23407478_253420926_1471211282_253421043 23407478_1471211282_232362059_1471211282 317809010_232362059_232348488_232362059 317809010_232362059_232348488_232348485 317809010_232362059_232348488_1604868804 317809010_232362059_232348488_232348486 317809010_232348488_1366649896_232348488 317809010_1366649896_232348498_1366649896 317809010_1366649896_232348498_232348491 317809010_1366649896_232348498_232348493 317809010_1366649896_232348498_232348495 21581146_232348498_1471211300_232348498 21581146_1471211300_512517255_1471211300 21581146_1471211300_512517255_232349201 41677251_512517255_512517267_512517255 41677260_512517267_1597707311_512517267 41677260_512517267_1597707311_1898376505 146484026_1597707311_1597707433_1597707311 146484026_1597707311_1597707433_1597707271 146484026_1597707311_1597707433_1597707416 146484026_1597707433_1597707311_1597707433 146484026_1597707433_1597707311_1597707416 146484026_1597707433_1597707311_1597707271" />
	<route id="14" edges="21580836_213716377_518783835_5795604945 21580836_213716377_518783835_232346733 21580836_213716377_518783835_232346735 21580836_213716377_518783835_232346736 21580836_213716377_518783835_232346737 21580836_213716377_518783835_232346738 21580836_213716377_518783835_1589739779 21580836_518783835_1471211295_518783835 21580836_518783835_1471211295_1818310434 21580836_518783835_1471211295_232346739 21580836_1471211295_232348480_1471211295 321639540_232348480_232348481_232348480 23407477_232348481_1604868800_232348481 23407477_1604868800_253420926_1604868800 23407477_1604868800_253420926_253421042 23407443_253420926_518783851_253420926 23407443_253420926_518783851_5673759044 23407443_518783851_253420925_518783851 23407459_253420925_254120463_253420925 23407459_253420925_254120463_253420962 23407459_253420925_254120463_3122917540 23407459_253420925_254120463_1604850605 23407459_253420925_254120463_253420923 321639583_254120463_254120464_254120463 321639583_254120463_254120464_1604850590 321639583_254120464_254120468_254120464 321639583_254120464_254120468_254120465 321639583_254120464_254120468_1604850604 321639583_254120464_254120468_1898125184 321639583_254120464_254120468_254120466 321639583_254120464_254120468_1604850585 321639583_254120464_254120468_1898125185 321639583_254120464_254120468_254120467 321639583_254120464_254120468_1604850589 321639583_254120464_254120468_1604850601 321639583_254120464_254120468_1604850602 321639583_254120468_254120470_254120468 321639583_254120468_254120470_1604850586 147256257_254120470_253420936_254120470 147256257_254120470_253420936_253420951" />
	<route id="1" edges="23407463_1898125225_253420925_1898125225 23407463_1898125225_253420925_253420969 23407463_1898125225_253420925_253420970 23407463_1898125225_253420925_253420971 23407463_1898125225_253420925_3122917539 23407443_253420925_518783851_253420925 23407443_518783851_253420926_518783851 23407443_518783851_253420926_5673759044 23407478_253420926_1471211282_253420926 23407478_253420926_1471211282_1207489118 23407478_253420926_1471211282_253421043 23407478_1471211282_232362059_1471211282 317809010_232362059_232348488_232362059 317809010_232362059_232348488_232348485 317809010_232362059_232348488_1604868804 317809010_232362059_232348488_232348486 317809010_232348488_1366649896_232348488 317809010_1366649896_232348498_1366649896 317809010_1366649896_232348498_232348491 317809010_1366649896_232348498_232348493 317809010_1366649896_232348498_232348495 21581146_232348498_1471211300_232348498 21581146_1471211300_512517255_1471211300 21581146_1471211300_512517255_232349201 41677251_512517255_512517267_512517255 41677260_512517267_1597707311_512517267 41677260_512517267_1597707311_1898376505 146484026_1597707311_1597707433_1597707311 146484026_1597707311_1597707433_1597707271 146484026_1597707311_1597707433_1597707416 146484026_1597707433_1597707311_1597707433" />
	<route id="2" edges="146484026_1597707433_1597707311_1597707416 146484026_1597707433_1597707311_1597707271 41677260_1597707311_512517267_1597707311 41677260_1597707311_512517267_1898376505 41677260_512517267_512516845_512517267 41677260_512517267_512516845_1229115232 41677260_512517267_512516845_1898376507 41677260_512517267_512516845_512517271 41677260_512517267_512516845_1898376492 41677260_512517267_512516845_1898376511 41677260_512516845_512517267_512516845 41677260_512516845_512517267_1898376511 41677260_512516845_512517267_1898376492 41677260_512516845_512517267_512517271 41677260_512516845_512517267_1898376507 41677260_512516845_512517267_1229115232" />
	<route id="3" edges="146484026_1597707433_1597707311_1597707271 41677260_1597707311_512517267_1597707311 41677260_1597707311_512517267_1898376505 41677260_512517267_512516845_512517267 41677260_512517267_512516845_1229115232 41677260_512517267_512516845_1898376507 41677260_512517267_512516845_512517271 41677260_512517267_512516845_1898376492 41677260_512517267_512516845_1898376511 41677260_512516845_512517267_512516845 41677260_512516845_512517267_1898376511 41677260_512516845_512517267_1898376492 41677260_512516845_512517267_512517271 41677260_512516845_512517267_1898376507 41677260_512516845_512517267_1229115232" />
	<route id="4" edges="23407457_253420927_253420957_253420927 23407457_253420957_254120468_253420957 23407457_253420957_254120468_253420958 321639583_254120468_254120470_254120468 321639583_254120468_254120470_1604850586 321639601_254120470_254120646_254120470 321639601_254120470_254120646_1898125264 321639601_254120470_254120646_1604850610 321639601_254120470_254120646_254120459 321639601_254120470_254120646_1898125188 321639601_254120470_254120646_1604850584 321639601_254120470_254120646_254120460 321639601_254120470_254120646_1604850587 317809021_254120646_254120461_254120646 317809021_254120646_254120461_1604850588 23407463_254120461_1898125225_254120461 23407463_254120461_1898125225_1604850599 23407463_1898125225_253420925_1898125225 23407463_1898125225_253420925_253420969 23407463_1898125225_253420925_253420970 23407463_1898125225_253420925_253420971 23407463_1898125225_253420925_3122917539 23407443_253420925_518783851_253420925 23407443_518783851_253420926_518783851 23407443_518783851_253420926_5673759044 23407478_253420926_1471211282_253420926 23407478_253420926_1471211282_1207489118 23407478_253420926_1471211282_253421043 23407478_1471211282_232362059_1471211282 317809010_232362059_232348488_232362059 317809010_232362059_232348488_232348485 317809010_232362059_232348488_1604868804 317809010_232362059_232348488_232348486 317809010_232348488_1366649896_232348488 317809010_1366649896_232348498_1366649896 317809010_1366649896_232348498_232348491 317809010_1366649896_232348498_232348493 317809010_1366649896_232348498_232348495 21581146_232348498_1471211300_232348498 21581146_1471211300_512517255_1471211300 21581146_1471211300_512517255_232349201 41677251_512517255_512517267_512517255 41677260_512517267_1597707311_512517267 41677260_512517267_1597707311_1898376505 146484026_1597707311_1597707433_1597707311 146484026_1597707311_1597707433_1597707271 146484026_1597707311_1597707433_1597707416 146484026_1597707433_1597707311_1597707433 146484026_1597707433_1597707311_1597707416" />
	<route id="5" edges="727941872_518783883_518783286_518783883 727941872_518783883_518783286_4374347685 41907607_518783286_649620241_518783286 41907607_518783286_649620241_4374347683 41907607_518783286_649620241_518783285 41907607_518783286_649620241_1900618613 41907626_649620241_1207489116_649620241 41907626_1207489116_518783851_1207489116 41907626_1207489116_518783851_5673759043 23407443_518783851_253420925_518783851 23407459_253420925_254120463_253420925 23407459_253420925_254120463_253420962 23407459_253420925_254120463_3122917540 23407459_253420925_254120463_1604850605 23407459_253420925_254120463_253420923 321639583_254120463_254120464_254120463 321639583_254120463_254120464_1604850590 23407461_254120464_253420927_254120464 23407461_254120464_253420927_253420912 23407461_254120464_253420927_253420968 23407461_254120464_253420927_4964912590 23407461_254120464_253420927_4964912588" />
	<route id="6" edges="23407457_253420927_253420957_253420927 23407457_253420957_254120468_253420957 23407457_253420957_254120468_253420958 321639583_254120468_254120470_254120468 321639583_254120468_254120470_1604850586 321639601_254120470_254120646_254120470 321639601_254120470_254120646_1898125264 321639601_254120470_254120646_1604850610 321639601_254120470_254120646_254120459 321639601_254120470_254120646_1898125188 321639601_254120470_254120646_1604850584 321639601_254120470_254120646_254120460 321639601_254120470_254120646_1604850587 317809021_254120646_254120461_254120646 317809021_254120646_254120461_1604850588 23407463_254120461_1898125225_254120461 23407463_254120461_1898125225_1604850599 23407463_1898125225_253420925_1898125225 23407463_1898125225_253420925_253420969 23407463_1898125225_253420925_253420970 23407463_1898125225_253420925_253420971 23407463_1898125225_253420925_3122917539 23407443_253420925_518783851_253420925 41907626_518783851_1207489116_518783851 41907626_518783851_1207489116_5673759043 41907626_1207489116_649620241_1207489116 41907626_649620241_518783859_649620241 41907626_518783859_1205623151_518783859 41907626_518783859_1205623151_1205623101 104684861_1205623151_1207489109_1205623151 104684862_1207489109_518783883_1207489109 104684862_1207489109_518783883_1205623163 104684862_1207489109_518783883_518783876" />
	<route id="7" edges="21582699_232362059_232364962_1818310360 21582699_232362059_232364962_1604868832 21582699_232362059_232364962_1604868798 21582699_232362059_232364962_1898125189 21582699_232362059_232364962_232362055 21582699_232362059_232364962_5897691522 21582699_232362059_232364962_232364152 21582699_232362059_232364962_5897691523 21582699_232362059_232364962_232364157 21582699_232362059_232364962_232364161 21582699_232362059_232364962_232364166 21582699_232362059_232364962_6206446649 21582699_232362059_232364962_1628441216" />
	<route id="8" edges="104684860_1207489135_1207489111_1207489135 104684859_1207489111_518783859_1207489111 104684859_1207489111_518783859_5673759042 41907626_518783859_649620241_518783859 41907626_649620241_1207489116_649620241 41907626_1207489116_518783851_1207489116 41907626_1207489116_518783851_5673759043 23407443_518783851_253420926_518783851 23407443_518783851_253420926_5673759044 23407478_253420926_1471211282_253420926 23407478_253420926_1471211282_1207489118 23407478_253420926_1471211282_253421043 23407478_1471211282_232362059_1471211282 21582699_232362059_232364962_232362059 21582699_232362059_232364962_232362057" />
	<route id="9" edges="21582699_232362059_232364962_1818310360 21582699_232362059_232364962_1604868832 21582699_232362059_232364962_1604868798 21582699_232362059_232364962_1898125189 21582699_232362059_232364962_232362055 21582699_232362059_232364962_5897691522 21582699_232362059_232364962_232364152 21582699_232362059_232364962_5897691523 21582699_232362059_232364962_232364157 21582699_232362059_232364962_232364161 21582699_232362059_232364962_232364166 21582699_232362059_232364962_6206446649 21582699_232362059_232364962_1628441216" />
	<route id="10" edges="146484026_1597707433_1597707311_1597707416 146484026_1597707433_1597707311_1597707271 41677260_1597707311_512517267_1597707311 41677260_1597707311_512517267_1898376505 41677260_512517267_512516845_512517267 41677260_512517267_512516845_1229115232 41677260_512517267_512516845_1898376507 41677260_512517267_512516845_512517271 41677260_512517267_512516845_1898376492 41677260_512517267_512516845_1898376511 41677260_512516845_512517267_512516845 41677260_512516845_512517267_1898376511 41677260_512516845_512517267_1898376492 41677260_512516845_512517267_512517271 41677260_512516845_512517267_1898376507 41677260_512516845_512517267_1229115232" />
</routes>