<nodes>
	<node id="1471205352" x="550138.1727" y="4598997.3025" z="0.0000" type="priority" />
	<node id="232348488" x="550440.3440" y="4600319.4803" z="0.0000" type="priority" />
	<node id="1471205350" x="550161.5355" y="4599095.8009" z="0.0000" type="priority" />
	<node id="1471205592" x="549818.0412" y="4598481.2542" z="0.0000" type="priority" />
	<node id="1471205471" x="550192.4642" y="4598900.7436" z="0.0000" type="priority" />
	<node id="232348486" x="550434.2469" y="4600315.9958" z="0.0000" type="priority" />
	<node id="232348485" x="550424.6656" y="4600316.9945" z="0.0000" type="priority" />
	<node id="232348484" x="550417.4513" y="4600326.5589" z="0.0000" type="priority" />
	<node id="1591407051" x="550165.5258" y="4598941.9687" z="0.0000" type="priority" />
	<node id="232348483" x="550415.4851" y="4600333.4177" z="0.0000" type="priority" />
	<node id="1774105329" x="550094.7327" y="4599096.5575" z="0.0000" type="priority" />
	<node id="232348482" x="550415.5051" y="4600342.4776" z="0.0000" type="priority" />
	<node id="232348481" x="550421.4007" y="4600354.4986" z="0.0000" type="priority" />
	<node id="232348480" x="550426.7110" y="4600359.5764" z="0.0000" type="priority" />
	<node id="1471205237" x="550084.4101" y="4599426.0001" z="0.0000" type="priority" />
	<node id="1471205479" x="550108.8734" y="4599144.2305" z="0.0000" type="priority" />
	<node id="1471205238" x="550090.2778" y="4599437.4211" z="0.0000" type="priority" />
	<node id="1471205356" x="550125.9522" y="4599065.6873" z="0.0000" type="priority" />
	<node id="1471205599" x="550274.5915" y="4599699.8718" z="0.0000" type="priority" />
	<node id="1471205236" x="550086.3286" y="4599379.1938" z="0.0000" type="priority" />
	<node id="1471205354" x="549784.9884" y="4598497.1801" z="0.0000" type="priority" />
	<node id="254120646" x="550079.2054" y="4600298.2747" z="0.0000" type="priority" />
	<node id="1471205233" x="550104.0877" y="4599457.0022" z="0.0000" type="priority" />
	<node id="253420971" x="550163.2329" y="4600326.6604" z="0.0000" type="priority" />
	<node id="253420970" x="550144.1266" y="4600323.0078" z="0.0000" type="priority" />
	<node id="232348478" x="550438.1311" y="4600359.1900" z="0.0000" type="priority" />
	<node id="232349201" x="550443.7196" y="4600366.2238" z="0.0000" type="priority" />
	<node id="1471205461" x="550084.0123" y="4599407.6337" z="0.0000" type="priority" />
	<node id="1818310360" x="550424.2919" y="4600291.7445" z="0.0000" type="priority" />
	<node id="1937769435" x="550126.1928" y="4599430.3876" z="0.0000" type="priority" />
	<node id="1471205580" x="550157.3702" y="4598730.6849" z="0.0000" type="priority" />
	<node id="1898376511" x="550514.4096" y="4600374.3800" z="0.0000" type="priority" />
	<node id="1937769431" x="550125.9464" y="4599426.2446" z="0.0000" type="priority" />
	<node id="1471205229" x="550129.5823" y="4599497.0824" z="0.0000" type="priority" />
	<node id="1471205345" x="550144.4736" y="4598915.3425" z="0.0000" type="priority" />
	<node id="1471205587" x="549785.6740" y="4598461.9341" z="0.0000" type="priority" />
	<node id="1471205467" x="549818.0305" y="4598504.5251" z="0.0000" type="priority" />
	<node id="1471205464" x="549746.6330" y="4598466.7828" z="0.0000" type="priority" />
	<node id="1591372544" x="550505.6245" y="4600320.1264" z="0.0000" type="priority" />
	<node id="512517284" x="550508.8788" y="4600588.6667" z="0.0000" type="priority" />
	<node id="253420968" x="550062.4344" y="4600360.5771" z="0.0000" type="priority" />
	<node id="232346738" x="550448.7445" y="4600564.4522" z="0.0000" type="priority" />
	<node id="4374347685" x="550404.6500" y="4600490.9549" z="0.0000" type="priority" />
	<node id="253420969" x="550125.7467" y="4600318.0281" z="0.0000" type="priority" />
	<node id="232346739" x="550429.0915" y="4600365.0222" z="0.0000" type="priority" />
	<node id="4374347684" x="550431.6426" y="4600483.0722" z="0.0000" type="priority" />
	<node id="1898125267" x="550089.8404" y="4600306.4425" z="0.0000" type="priority" />
	<node id="232346736" x="550452.7576" y="4600609.4461" z="0.0000" type="priority" />
	<node id="4374347683" x="550403.5081" y="4600480.1441" z="0.0000" type="priority" />
	<node id="232346737" x="550451.2413" y="4600591.3825" z="0.0000" type="priority" />
	<node id="232346735" x="550453.8147" y="4600622.8322" z="0.0000" type="priority" />
	<node id="1604868761" x="550470.0262" y="4600306.3317" z="0.0000" type="priority" />
	<node id="232346733" x="550453.7970" y="4600630.1265" z="0.0000" type="priority" />
	<node id="1589739777" x="550454.9537" y="4600497.1471" z="0.0000" type="priority" />
	<node id="253420962" x="550175.8092" y="4600332.6879" z="0.0000" type="priority" />
	<node id="1604868763" x="550442.4636" y="4600356.2115" z="0.0000" type="priority" />
	<node id="1898125264" x="550044.9681" y="4600310.5384" z="0.0000" type="priority" />
	<node id="1471205573" x="550147.9849" y="4599077.2319" z="0.0000" type="priority" />
	<node id="1471205694" x="550091.2583" y="4598651.9518" z="0.0000" type="priority" />
	<node id="1589739779" x="550442.4098" y="4600497.2813" z="0.0000" type="priority" />
	<node id="232364152" x="550382.5209" y="4599876.1916" z="0.0000" type="priority" />
	<node id="1471205699" x="549924.0253" y="4598542.9186" z="0.0000" type="priority" />
	<node id="1471205576" x="550182.3448" y="4598831.4040" z="0.0000" type="priority" />
	<node id="1471205697" x="550120.0672" y="4599075.9052" z="0.0000" type="priority" />
	<node id="1471205696" x="550125.5064" y="4599418.7473" z="0.0000" type="priority" />
	<node id="1818309908" x="550103.4343" y="4599337.4558" z="0.0000" type="priority" />
	<node id="253420957" x="550036.6716" y="4600365.5053" z="0.0000" type="priority" />
	<node id="1604868779" x="550437.7446" y="4600260.7402" z="0.0000" type="priority" />
	<node id="253420958" x="550038.8527" y="4600346.8681" z="0.0000" type="priority" />
	<node id="253420953" x="550025.6070" y="4600258.2770" z="0.0000" type="priority" />
	<node id="253420952" x="550034.5187" y="4600281.6322" z="0.0000" type="priority" />
	<node id="232364157" x="550370.4765" y="4599839.3354" z="0.0000" type="priority" />
	<node id="253420951" x="550039.3888" y="4600300.9180" z="0.0000" type="priority" />
	<node id="512517271" x="550493.8141" y="4600384.5278" z="0.0000" type="priority" />
	<node id="1604850588" x="550084.6465" y="4600301.3769" z="0.0000" type="priority" />
	<node id="1604850587" x="550073.0962" y="4600296.5003" z="0.0000" type="priority" />
	<node id="1471205562" x="550086.8610" y="4599393.7863" z="0.0000" type="priority" />
	<node id="232348498" x="550444.8767" y="4600352.2315" z="0.0000" type="priority" />
	<node id="1604850586" x="550042.0160" y="4600321.3096" z="0.0000" type="priority" />
	<node id="1604850585" x="550058.7722" y="4600347.5172" z="0.0000" type="priority" />
	<node id="232348495" x="550447.1921" y="4600344.3426" z="0.0000" type="priority" />
	<node id="232364161" x="550357.0261" y="4599810.2969" z="0.0000" type="priority" />
	<node id="232348493" x="550446.9607" y="4600336.8911" z="0.0000" type="priority" />
	<node id="1604850589" x="550048.6305" y="4600340.3744" z="0.0000" type="priority" />
	<node id="1471205448" x="550261.1244" y="4599688.6752" z="0.0000" type="priority" />
	<node id="232348491" x="550445.3815" y="4600327.7870" z="0.0000" type="priority" />
	<node id="1471205325" x="550147.9104" y="4598932.1092" z="0.0000" type="priority" />
	<node id="1604850584" x="550061.0146" y="4600297.2712" z="0.0000" type="priority" />
	<node id="1471205323" x="550100.6241" y="4599450.1056" z="0.0000" type="priority" />
	<node id="1471205565" x="550382.4317" y="4599909.2324" z="0.0000" type="priority" />
	<node id="254120778" x="550095.2140" y="4600326.4424" z="0.0000" type="priority" />
	<node id="1471205321" x="550179.1671" y="4598922.3899" z="0.0000" type="priority" />
	<node id="1471205322" x="550104.8836" y="4599304.1581" z="0.0000" type="priority" />
	<node id="1471205443" x="550062.1553" y="4598655.3135" z="0.0000" type="priority" />
	<node id="1597707433" x="550567.5818" y="4600563.6757" z="0.0000" type="priority" />
	<node id="1471205439" x="550079.0808" y="4598666.1340" z="0.0000" type="priority" />
	<node id="1471205319" x="550154.4804" y="4599136.3097" z="0.0000" type="priority" />
	<node id="512517267" x="550494.5434" y="4600472.0217" z="0.0000" type="priority" />
	<node id="232364166" x="550338.8931" y="4599779.3492" z="0.0000" type="priority" />
	<node id="1604868786" x="550435.9247" y="4600364.6149" z="0.0000" type="priority" />
	<node id="1597707311" x="550503.3837" y="4600524.3438" z="0.0000" type="priority" />
	<node id="1604868788" x="550413.7059" y="4600321.9029" z="0.0000" type="priority" />
	<node id="232364962" x="550270.8253" y="4599689.7754" z="0.0000" type="priority" />
	<node id="1604868782" x="550422.2970" y="4600362.2767" z="0.0000" type="priority" />
	<node id="253420940" x="550064.8016" y="4600283.9744" z="0.0000" type="priority" />
	<node id="1604850599" x="550099.7329" y="4600307.4550" z="0.0000" type="priority" />
	<node id="1471205395" x="550335.5841" y="4599781.4245" z="0.0000" type="priority" />
	<node id="1471205274" x="550099.5905" y="4599132.0974" z="0.0000" type="priority" />
	<node id="1471205392" x="550158.4643" y="4598794.0218" z="0.0000" type="priority" />
	<node id="1471205271" x="550210.9260" y="4599610.2959" z="0.0000" type="priority" />
	<node id="1471205390" x="550153.0331" y="4598772.5449" z="0.0000" type="priority" />
	<node id="1604850590" x="550084.5819" y="4600344.2437" z="0.0000" type="priority" />
	<node id="1471205710" x="550220.5179" y="4599624.6519" z="0.0000" type="priority" />
	<node id="1207489109" x="550299.7917" y="4600512.8491" z="0.0000" type="priority" />
	<node id="1471205832" x="550378.9380" y="4599903.1348" z="0.0000" type="priority" />
	<node id="1471205830" x="550164.7990" y="4598746.8021" z="0.0000" type="priority" />
	<node id="1471205277" x="549865.2304" y="4598532.1417" z="0.0000" type="priority" />
	<node id="1604850592" x="550092.6294" y="4600334.7292" z="0.0000" type="priority" />
	<node id="1471205399" x="549809.4899" y="4598499.4588" z="0.0000" type="priority" />
	<node id="1604868798" x="550415.2820" y="4600187.2723" z="0.0000" type="priority" />
	<node id="1898125233" x="550093.3764" y="4600312.4625" z="0.0000" type="priority" />
	<node id="1604868793" x="550412.1775" y="4600341.2885" z="0.0000" type="priority" />
	<node id="1774105376" x="550230.7503" y="4599650.0150" z="0.0000" type="priority" />
	<node id="1774105377" x="550252.7184" y="4599681.2999" z="0.0000" type="priority" />
	<node id="1937769517" x="550430.7528" y="4600186.0926" z="0.0000" type="priority" />
	<node id="1900618613" x="550380.1898" y="4600377.6479" z="0.0000" type="priority" />
	<node id="1207489111" x="550239.1067" y="4600414.3560" z="0.0000" type="priority" />
	<node id="1471205263" x="550134.8264" y="4598887.1969" z="0.0000" type="priority" />
	<node id="1471205260" x="550241.2477" y="4599668.4741" z="0.0000" type="priority" />
	<node id="1471205261" x="550134.6282" y="4598897.6875" z="0.0000" type="priority" />
	<node id="1937769514" x="550406.8508" y="4600150.2304" z="0.0000" type="priority" />
	<node id="6206446640" x="550242.8035" y="4599616.4026" z="0.0000" type="priority" />
	<node id="6206446641" x="550269.5093" y="4599696.6832" z="0.0000" type="priority" />
	<node id="1937769510" x="550425.2279" y="4600127.0546" z="0.0000" type="priority" />
	<node id="1471205389" x="549759.5577" y="4598482.0715" z="0.0000" type="priority" />
	<node id="1207489118" x="550395.0537" y="4600340.3804" z="0.0000" type="priority" />
	<node id="1955883092" x="550133.4753" y="4600426.2215" z="0.0000" type="priority" />
	<node id="1207489116" x="550229.7542" y="4600359.8545" z="0.0000" type="priority" />
	<node id="1471205388" x="550419.9877" y="4600291.8587" z="0.0000" type="priority" />
	<node id="6206446637" x="550221.9869" y="4599629.2919" z="0.0000" type="priority" />
	<node id="6932962097" x="550365.7456" y="4599858.6875" z="0.0000" type="priority" />
	<node id="1898125225" x="550108.9258" y="4600311.9267" z="0.0000" type="priority" />
	<node id="1955883404" x="550410.6894" y="4600549.1417" z="0.0000" type="priority" />
	<node id="232363578" x="550297.4928" y="4599703.7621" z="0.0000" type="priority" />
	<node id="5897691520" x="550366.1982" y="4599889.3784" z="0.0000" type="priority" />
	<node id="254120464" x="550079.5056" y="4600347.4615" z="0.0000" type="priority" />
	<node id="1898376505" x="550497.9140" y="4600478.9734" z="0.0000" type="priority" />
	<node id="253421043" x="550407.7776" y="4600332.4311" z="0.0000" type="priority" />
	<node id="254120465" x="550075.0938" y="4600348.6632" z="0.0000" type="priority" />
	<node id="1471205372" x="550119.0304" y="4598705.6372" z="0.0000" type="priority" />
	<node id="254120466" x="550064.9906" y="4600349.1703" z="0.0000" type="priority" />
	<node id="254120467" x="550052.9151" y="4600344.2789" z="0.0000" type="priority" />
	<node id="254120460" x="550067.2187" y="4600296.1818" z="0.0000" type="priority" />
	<node id="254120461" x="550086.3632" y="4600302.7656" z="0.0000" type="priority" />
	<node id="253421042" x="550410.6724" y="4600350.1823" z="0.0000" type="priority" />
	<node id="254120462" x="550094.8294" y="4600316.9914" z="0.0000" type="priority" />
	<node id="254120463" x="550087.1927" y="4600342.9962" z="0.0000" type="priority" />
	<node id="1937769405" x="550114.6624" y="4599398.4651" z="0.0000" type="priority" />
	<node id="1818309821" x="550155.8550" y="4599001.1338" z="0.0000" type="priority" />
	<node id="1471205259" x="550420.4635" y="4600302.5206" z="0.0000" type="priority" />
	<node id="1471205810" x="550060.8251" y="4598630.6454" z="0.0000" type="priority" />
	<node id="254120468" x="550042.0351" y="4600324.5517" z="0.0000" type="priority" />
	<node id="5897691522" x="550387.1350" y="4599900.9827" z="0.0000" type="priority" />
	<node id="1818309824" x="550150.1921" y="4599035.7568" z="0.0000" type="priority" />
	<node id="5897691523" x="550375.7422" y="4599854.4274" z="0.0000" type="priority" />
	<node id="1471205807" x="550087.9909" y="4598671.9915" z="0.0000" type="priority" />
	<node id="1471205804" x="550147.0587" y="4599488.3663" z="0.0000" type="priority" />
	<node id="1898125218" x="550095.4099" y="4600321.0590" z="0.0000" type="priority" />
	<node id="232362692" x="550401.6692" y="4599916.9278" z="0.0000" type="priority" />
	<node id="1898125214" x="550094.4378" y="4600330.1231" z="0.0000" type="priority" />
	<node id="1898376507" x="550491.5647" y="4600396.0809" z="0.0000" type="priority" />
	<node id="1471205363" x="549780.2428" y="4598493.4057" z="0.0000" type="priority" />
	<node id="1207489135" x="550215.3527" y="4600450.5626" z="0.0000" type="priority" />
	<node id="1937769418" x="550123.4503" y="4599410.9611" z="0.0000" type="priority" />
	<node id="1471205360" x="550139.2599" y="4598908.1784" z="0.0000" type="priority" />
	<node id="1937769414" x="550122.6620" y="4599407.9801" z="0.0000" type="priority" />
	<node id="1471205801" x="550109.2776" y="4599082.5139" z="0.0000" type="priority" />
	<node id="1471205367" x="550112.4246" y="4598697.1200" z="0.0000" type="priority" />
	<node id="5673759041" x="550207.6663" y="4600419.0441" z="0.0000" type="priority" />
	<node id="254120459" x="550051.6389" y="4600302.2910" z="0.0000" type="priority" />
	<node id="1471205244" x="550085.0220" y="4599301.9660" z="0.0000" type="priority" />
	<node id="1207489137" x="550107.2653" y="4600379.1860" z="0.0000" type="priority" />
	<node id="1471205487" x="550105.1733" y="4599369.2547" z="0.0000" type="priority" />
	<node id="213716377" x="550452.0729" y="4600642.9046" z="0.0000" type="priority" />
	<node id="5673759044" x="550232.5258" y="4600334.3489" z="0.0000" type="priority" />
	<node id="5673759042" x="550248.0883" y="4600409.6334" z="0.0000" type="priority" />
	<node id="5673759043" x="550222.9944" y="4600342.5539" z="0.0000" type="priority" />
	<node id="512516772" x="550426.2295" y="4600186.5162" z="0.0000" type="priority" />
	<node id="5897691519" x="550363.0502" y="4599874.3900" z="0.0000" type="priority" />
	<node id="1591446111" x="550184.1202" y="4598869.9424" z="0.0000" type="priority" />
	<node id="1591446113" x="550170.0083" y="4598934.3392" z="0.0000" type="priority" />
	<node id="232365299" x="550283.5275" y="4599677.9065" z="0.0000" type="priority" />
	<node id="1207489141" x="550140.7634" y="4600428.7481" z="0.0000" type="priority" />
	<node id="6206451102" x="550085.9979" y="4599397.9660" z="0.0000" type="priority" />
	<node id="1471205512" x="550129.8172" y="4599457.3255" z="0.0000" type="priority" />
	<node id="6206451106" x="550113.5024" y="4599396.1588" z="0.0000" type="priority" />
	<node id="4964912590" x="550053.1379" y="4600368.6286" z="0.0000" type="priority" />
	<node id="1205623123" x="550353.0036" y="4600485.9528" z="0.0000" type="priority" />
	<node id="1471205632" x="550243.1750" y="4599616.9492" z="0.0000" type="priority" />
	<node id="1898362995" x="550420.8545" y="4600127.5125" z="0.0000" type="priority" />
	<node id="1471205509" x="550171.1687" y="4598764.0666" z="0.0000" type="priority" />
	<node id="1591446140" x="550180.7004" y="4598802.8144" z="0.0000" type="priority" />
	<node id="6206465068" x="550153.6530" y="4599084.9987" z="0.0000" type="priority" />
	<node id="1471205506" x="550177.4868" y="4598786.3380" z="0.0000" type="priority" />
	<node id="1229115232" x="550491.0994" y="4600420.8144" z="0.0000" type="priority" />
	<node id="1366649905" x="550451.2067" y="4600310.5521" z="0.0000" type="priority" />
	<node id="1366649904" x="550527.6683" y="4600368.6885" z="0.0000" type="priority" />
	<node id="1366649906" x="550445.3655" y="4600260.9934" z="0.0000" type="priority" />
	<node id="1366649901" x="550460.8425" y="4600307.7218" z="0.0000" type="priority" />
	<node id="1366649900" x="550511.5424" y="4600328.9501" z="0.0000" type="priority" />
	<node id="1366649903" x="550452.4436" y="4600304.2323" z="0.0000" type="priority" />
	<node id="1366649902" x="550494.3884" y="4600312.1093" z="0.0000" type="priority" />
	<node id="1604850602" x="550043.2176" y="4600330.8107" z="0.0000" type="priority" />
	<node id="1604850601" x="550045.9370" y="4600336.7362" z="0.0000" type="priority" />
	<node id="4964912589" x="550032.7009" y="4600369.2416" z="0.0000" type="priority" />
	<node id="5836934721" x="550161.5093" y="4598966.5442" z="0.0000" type="priority" />
	<node id="4964912588" x="550044.8209" y="4600377.3419" z="0.0000" type="priority" />
	<node id="518783876" x="550346.3778" y="4600542.6077" z="0.0000" type="priority" />
	<node id="1471205503" x="550135.2104" y="4598730.0755" z="0.0000" type="priority" />
	<node id="1471205504" x="550188.4992" y="4598909.5092" z="0.0000" type="priority" />
	<node id="1471205746" x="549748.1144" y="4598460.0315" z="0.0000" type="priority" />
	<node id="3122917540" x="550155.2912" y="4600331.7567" z="0.0000" type="priority" />
	<node id="6206465064" x="550106.5441" y="4599139.7400" z="0.0000" type="priority" />
	<node id="518783883" x="550409.4922" y="4600536.6984" z="0.0000" type="priority" />
	<node id="1604868804" x="550429.7782" y="4600315.7757" z="0.0000" type="priority" />
	<node id="3758268966" x="550119.2288" y="4599220.4331" z="0.0000" type="priority" />
	<node id="1604850605" x="550128.8383" y="4600332.7606" z="0.0000" type="priority" />
	<node id="1604868800" x="550415.3188" y="4600352.4131" z="0.0000" type="priority" />
	<node id="1604850604" x="550071.5367" y="4600349.2824" z="0.0000" type="priority" />
	<node id="254120470" x="550042.7849" y="4600316.2743" z="0.0000" type="priority" />
	<node id="3758268964" x="550132.9547" y="4599156.2223" z="0.0000" type="priority" />
	<node id="1604850608" x="550092.2501" y="4600310.1231" z="0.0000" type="priority" />
	<node id="1471205297" x="549790.3753" y="4598498.6828" z="0.0000" type="priority" />
	<node id="1604850610" x="550047.6912" y="4600306.3161" z="0.0000" type="priority" />
	<node id="232363581" x="550349.4878" y="4599774.2606" z="0.0000" type="priority" />
	<node id="232345031" x="550461.5298" y="4600560.8002" z="0.0000" type="priority" />
	<node id="1471205855" x="549801.8221" y="4598498.4621" z="0.0000" type="priority" />
	<node id="6206446650" x="550290.4677" y="4599689.7570" z="0.0000" type="priority" />
	<node id="1471205854" x="550238.9234" y="4599610.6687" z="0.0000" type="priority" />
	<node id="1205623101" x="550270.5797" y="4600424.1349" z="0.0000" type="priority" />
	<node id="1471205852" x="550225.3339" y="4599639.7295" z="0.0000" type="priority" />
	<node id="2617728127" x="550432.4573" y="4600360.7602" z="0.0000" type="priority" />
	<node id="1604868817" x="550440.8524" y="4600304.0401" z="0.0000" type="priority" />
	<node id="6206446649" x="550278.5122" y="4599698.5890" z="0.0000" type="priority" />
	<node id="1471205729" x="550127.9238" y="4598685.1037" z="0.0000" type="priority" />
	<node id="1471205609" x="550138.9990" y="4598880.9419" z="0.0000" type="priority" />
	<node id="1471205606" x="550116.5131" y="4598671.7789" z="0.0000" type="priority" />
	<node id="6206446645" x="550290.7926" y="4599681.4435" z="0.0000" type="priority" />
	<node id="1471205849" x="550164.4405" y="4599108.6669" z="0.0000" type="priority" />
	<node id="2617728130" x="550418.0399" y="4600349.7009" z="0.0000" type="priority" />
	<node id="1471205846" x="550145.7027" y="4598709.9307" z="0.0000" type="priority" />
	<node id="1471205290" x="550265.6946" y="4599636.1472" z="0.0000" type="priority" />
	<node id="232363582" x="550367.2735" y="4599804.7728" z="0.0000" type="priority" />
	<node id="232363585" x="550381.9663" y="4599837.4284" z="0.0000" type="priority" />
	<node id="1604868811" x="550289.6944" y="4599688.2084" z="0.0000" type="priority" />
	<node id="1471211301" x="550293.0505" y="4599686.5664" z="0.0000" type="priority" />
	<node id="1471211300" x="550443.5324" y="4600361.9924" z="0.0000" type="priority" />
	<node id="232363586" x="550384.6854" y="4599845.7633" z="0.0000" type="priority" />
	<node id="232363588" x="550393.9419" y="4599874.5838" z="0.0000" type="priority" />
	<node id="1471211302" x="550277.9675" y="4599652.3539" z="0.0000" type="priority" />
	<node id="1471205282" x="550248.3415" y="4599677.4390" z="0.0000" type="priority" />
	<node id="232363590" x="550395.8909" y="4599883.3130" z="0.0000" type="priority" />
	<node id="1471205281" x="550235.5038" y="4599657.2981" z="0.0000" type="priority" />
	<node id="1471205844" x="550150.1269" y="4598867.7184" z="0.0000" type="priority" />
	<node id="1471205724" x="550083.0978" y="4599416.7981" z="0.0000" type="priority" />
	<node id="1471205842" x="550161.7036" y="4598843.9616" z="0.0000" type="priority" />
	<node id="1471205840" x="550192.7012" y="4598888.2659" z="0.0000" type="priority" />
	<node id="1898376492" x="550503.2346" y="4600377.8878" z="0.0000" type="priority" />
	<node id="1471205718" x="550161.5957" y="4599126.6999" z="0.0000" type="priority" />
	<node id="1471205836" x="550145.7401" y="4599062.9938" z="0.0000" type="priority" />
	<node id="1604868822" x="550435.4335" y="4600290.6456" z="0.0000" type="priority" />
	<node id="1597707271" x="550564.6643" y="4600518.3342" z="0.0000" type="priority" />
	<node id="1471205792" x="550123.8588" y="4599442.1734" z="0.0000" type="priority" />
	<node id="1471205793" x="550094.6506" y="4599115.5646" z="0.0000" type="priority" />
	<node id="1471205791" x="550162.2007" y="4598827.6776" z="0.0000" type="priority" />
	<node id="6206451025" x="550125.1814" y="4599435.4877" z="0.0000" type="priority" />
	<node id="1471205317" x="550083.0065" y="4599337.5359" z="0.0000" type="priority" />
	<node id="6206451028" x="550094.0574" y="4599442.0550" z="0.0000" type="priority" />
	<node id="1471205799" x="550228.0079" y="4599644.9886" z="0.0000" type="priority" />
	<node id="1471205313" x="549755.0986" y="4598451.2976" z="0.0000" type="priority" />
	<node id="512516845" x="550524.6362" y="4600374.1076" z="0.0000" type="priority" />
	<node id="1471205794" x="550182.5114" y="4598863.7914" z="0.0000" type="priority" />
	<node id="253420939" x="550049.1572" y="4600269.3656" z="0.0000" type="priority" />
	<node id="3122900766" x="550028.5771" y="4600371.0004" z="0.0000" type="priority" />
	<node id="253420938" x="550037.5394" y="4600258.5931" z="0.0000" type="priority" />
	<node id="3122900768" x="550016.2578" y="4600366.3850" z="0.0000" type="priority" />
	<node id="512517255" x="550453.4443" y="4600476.8964" z="0.0000" type="priority" />
	<node id="1471205309" x="550146.4465" y="4598949.4857" z="0.0000" type="priority" />
	<node id="1471211282" x="550411.5101" y="4600329.3929" z="0.0000" type="priority" />
	<node id="1471211280" x="550398.0505" y="4599872.6696" z="0.0000" type="priority" />
	<node id="518783851" x="550219.3810" y="4600333.3135" z="0.0000" type="priority" />
	<node id="253420936" x="550016.9141" y="4600238.2430" z="0.0000" type="priority" />
	<node id="3122900765" x="550023.7084" y="4600370.7557" z="0.0000" type="priority" />
	<node id="1471211284" x="550352.8785" y="4599772.4412" z="0.0000" type="priority" />
	<node id="1604868832" x="550419.2002" y="4600232.7872" z="0.0000" type="priority" />
	<node id="1471211283" x="550452.5439" y="4600349.4429" z="0.0000" type="priority" />
	<node id="1818310434" x="550430.1966" y="4600367.9944" z="0.0000" type="priority" />
	<node id="1471211289" x="550405.5864" y="4599917.3327" z="0.0000" type="priority" />
	<node id="1471211288" x="550445.7201" y="4600317.5527" z="0.0000" type="priority" />
	<node id="1471211287" x="550420.1187" y="4600312.4661" z="0.0000" type="priority" />
	<node id="5795604945" x="550452.9084" y="4600636.7374" z="0.0000" type="priority" />
	<node id="1471205666" x="550095.3682" y="4599091.5324" z="0.0000" type="priority" />
	<node id="1471205304" x="550220.0610" y="4599588.4985" z="0.0000" type="priority" />
	<node id="1471205788" x="549913.3160" y="4598560.7196" z="0.0000" type="priority" />
	<node id="1471205543" x="550142.4748" y="4598744.6372" z="0.0000" type="priority" />
	<node id="518783835" x="550441.0324" y="4600481.9833" z="0.0000" type="priority" />
	<node id="1471205420" x="550109.3503" y="4599159.6220" z="0.0000" type="priority" />
	<node id="518783285" x="550394.2822" y="4600392.2354" z="0.0000" type="priority" />
	<node id="1597707416" x="550566.4085" y="4600545.4924" z="0.0000" type="priority" />
	<node id="253420927" x="550030.5110" y="4600393.9630" z="0.0000" type="priority" />
	<node id="518783286" x="550404.1493" y="4600486.2439" z="0.0000" type="priority" />
	<node id="253420923" x="550110.7339" y="4600336.1319" z="0.0000" type="priority" />
	<node id="1471211292" x="550301.6613" y="4599701.6373" z="0.0000" type="priority" />
	<node id="253420926" x="550377.6770" y="4600345.8102" z="0.0000" type="priority" />
	<node id="1471205539" x="550139.3225" y="4599147.3512" z="0.0000" type="priority" />
	<node id="253420925" x="550195.1157" y="4600331.5567" z="0.0000" type="priority" />
	<node id="1471211290" x="550418.7614" y="4600357.4334" z="0.0000" type="priority" />
	<node id="1898125189" x="550411.3902" y="4600149.8958" z="0.0000" type="priority" />
	<node id="1471211296" x="550449.6534" y="4600323.9532" z="0.0000" type="priority" />
	<node id="1471211295" x="550429.0093" y="4600364.8440" z="0.0000" type="priority" />
	<node id="1471211294" x="550448.8864" y="4600357.2558" z="0.0000" type="priority" />
	<node id="1898125185" x="550055.1567" y="4600345.7490" z="0.0000" type="priority" />
	<node id="1898125188" x="550056.0296" y="4600299.3349" z="0.0000" type="priority" />
	<node id="1471211299" x="550371.1677" y="4599803.7008" z="0.0000" type="priority" />
	<node id="1471211298" x="550385.2015" y="4599836.3630" z="0.0000" type="priority" />
	<node id="1366649897" x="550447.7468" y="4600265.1403" z="0.0000" type="priority" />
	<node id="1471205770" x="549947.9660" y="4598581.5438" z="0.0000" type="priority" />
	<node id="1366649896" x="550442.0229" y="4600321.4905" z="0.0000" type="priority" />
	<node id="1366649899" x="550478.3895" y="4600307.7559" z="0.0000" type="priority" />
	<node id="1898125184" x="550068.3248" y="4600349.4266" z="0.0000" type="priority" />
	<node id="1366649898" x="550432.7802" y="4600261.0274" z="0.0000" type="priority" />
	<node id="1366649895" x="550450.9783" y="4600293.1527" z="0.0000" type="priority" />
	<node id="1898125180" x="550143.8591" y="4600287.1445" z="0.0000" type="priority" />
	<node id="3122917539" x="550179.7493" y="4600328.5852" z="0.0000" type="priority" />
	<node id="1471205657" x="550129.2815" y="4599162.6584" z="0.0000" type="priority" />
	<node id="1471205655" x="550256.0111" y="4599683.9653" z="0.0000" type="priority" />
	<node id="1471205414" x="550126.3091" y="4598715.7690" z="0.0000" type="priority" />
	<node id="1471205411" x="550363.9424" y="4599846.9839" z="0.0000" type="priority" />
	<node id="1471205533" x="550149.3607" y="4598920.2839" z="0.0000" type="priority" />
	<node id="1471205654" x="549752.8330" y="4598476.1851" z="0.0000" type="priority" />
	<node id="1471205652" x="550153.9372" y="4598861.9826" z="0.0000" type="priority" />
	<node id="1205623151" x="550330.4693" y="4600469.2968" z="0.0000" type="priority" />
	<node id="1471205529" x="550094.2658" y="4599121.7239" z="0.0000" type="priority" />
	<node id="1818310419" x="550453.5984" y="4600337.0153" z="0.0000" type="priority" />
	<node id="253420912" x="550070.7943" y="4600354.0958" z="0.0000" type="priority" />
	<node id="518783873" x="550176.5848" y="4600423.6905" z="0.0000" type="priority" />
	<node id="1471205407" x="550142.9594" y="4598875.2072" z="0.0000" type="priority" />
	<node id="649620241" x="550234.8750" y="4600368.2061" z="0.0000" type="priority" />
	<node id="232362055" x="550390.0204" y="4599916.5355" z="0.0000" type="priority" />