<edges>
	<edge id="317809010_232362059_232348488_232362059" from="232362059" to="232348485" numLanes="2" speed="13.89" />
	<edge id="317809010_232362059_232348488_232348485" from="232348485" to="1604868804" numLanes="2" speed="13.89" />
	<edge id="317809010_232362059_232348488_1604868804" from="1604868804" to="232348486" numLanes="2" speed="13.89" />
	<edge id="317809010_232362059_232348488_232348486" from="232348486" to="232348488" numLanes="2" speed="13.89" />
	<edge id="41907627_1207489135_1207489109_1207489135" from="1207489135" to="1207489109" numLanes="1" speed="8.33" />
	<edge id="122249112_1366649905_1366649904_1366649905" from="1366649905" to="1366649901" numLanes="1" speed="8.33" />
	<edge id="122249112_1366649905_1366649904_1366649901" from="1366649901" to="1604868761" numLanes="1" speed="8.33" />
	<edge id="122249112_1366649905_1366649904_1604868761" from="1604868761" to="1366649899" numLanes="1" speed="8.33" />
	<edge id="122249112_1366649905_1366649904_1366649899" from="1366649899" to="1366649902" numLanes="1" speed="8.33" />
	<edge id="122249112_1366649905_1366649904_1366649902" from="1366649902" to="1591372544" numLanes="1" speed="8.33" />
	<edge id="122249112_1366649905_1366649904_1591372544" from="1591372544" to="1366649900" numLanes="1" speed="8.33" />
	<edge id="122249112_1366649905_1366649904_1366649900" from="1366649900" to="1366649904" numLanes="1" speed="8.33" />
	<edge id="23407443_253420926_518783851_253420926" from="253420926" to="5673759044" numLanes="1" speed="13.89" />
	<edge id="23407443_253420926_518783851_5673759044" from="5673759044" to="518783851" numLanes="1" speed="13.89" />
	<edge id="104684860_1207489111_1207489135_1207489111" from="1207489111" to="1207489135" numLanes="1" speed="8.33" />
	<edge id="23407463_254120461_1898125225_254120461" from="254120461" to="1604850599" numLanes="2" speed="13.89" />
	<edge id="23407463_254120461_1898125225_1604850599" from="1604850599" to="1898125225" numLanes="2" speed="13.89" />
	<edge id="104684859_518783873_1207489111_518783873" from="518783873" to="5673759041" numLanes="1" speed="8.33" />
	<edge id="104684859_518783873_1207489111_5673759041" from="5673759041" to="1207489111" numLanes="1" speed="8.33" />
	<edge id="104684859_518783859_1207489111_518783859" from="518783859" to="5673759042" numLanes="1" speed="8.33" />
	<edge id="104684859_518783859_1207489111_5673759042" from="5673759042" to="1207489111" numLanes="1" speed="8.33" />
	<edge id="41907626_1207489116_518783851_1207489116" from="1207489116" to="5673759043" numLanes="1" speed="8.33" />
	<edge id="41907626_1207489116_518783851_5673759043" from="5673759043" to="518783851" numLanes="1" speed="8.33" />
	<edge id="21581146_512517255_232345031_512517255" from="512517255" to="1589739777" numLanes="2" speed="13.89" />
	<edge id="21581146_512517255_232345031_1589739777" from="1589739777" to="232345031" numLanes="2" speed="13.89" />
	<edge id="41677251_512517267_512517255_512517267" from="512517267" to="512517255" numLanes="1" speed="8.33" />
	<edge id="104684861_1207489109_1205623151_1207489109" from="1207489109" to="1205623151" numLanes="1" speed="8.33" />
	<edge id="21582699_232362059_232364962_232362059" from="232362059" to="232362057" numLanes="2" speed="13.89" />
	<edge id="21582699_232362059_232364962_232362057" from="232362057" to="1818310360" numLanes="2" speed="13.89" />
	<edge id="21582699_232362059_232364962_1818310360" from="1818310360" to="1604868832" numLanes="2" speed="13.89" />
	<edge id="21582699_232362059_232364962_1604868832" from="1604868832" to="1604868798" numLanes="2" speed="13.89" />
	<edge id="21582699_232362059_232364962_1604868798" from="1604868798" to="1898125189" numLanes="2" speed="13.89" />
	<edge id="21582699_232362059_232364962_1898125189" from="1898125189" to="232362055" numLanes="2" speed="13.89" />
	<edge id="21582699_232362059_232364962_232362055" from="232362055" to="5897691522" numLanes="2" speed="13.89" />
	<edge id="21582699_232362059_232364962_5897691522" from="5897691522" to="232364152" numLanes="2" speed="13.89" />
	<edge id="21582699_232362059_232364962_232364152" from="232364152" to="5897691523" numLanes="2" speed="13.89" />
	<edge id="21582699_232362059_232364962_5897691523" from="5897691523" to="232364157" numLanes="2" speed="13.89" />
	<edge id="21582699_232362059_232364962_232364157" from="232364157" to="232364161" numLanes="2" speed="13.89" />
	<edge id="21582699_232362059_232364962_232364161" from="232364161" to="232364166" numLanes="2" speed="13.89" />
	<edge id="21582699_232362059_232364962_232364166" from="232364166" to="6206446649" numLanes="2" speed="13.89" />
	<edge id="21582699_232362059_232364962_6206446649" from="6206446649" to="1628441216" numLanes="2" speed="13.89" />
	<edge id="21582699_232362059_232364962_1628441216" from="1628441216" to="232364962" numLanes="2" speed="13.89" />
	<edge id="727941872_518783883_518783286_518783883" from="518783883" to="4374347685" numLanes="1" speed="8.33" />
	<edge id="727941872_518783883_518783286_4374347685" from="4374347685" to="518783286" numLanes="1" speed="8.33" />
	<edge id="185016849_518783883_1955883404_518783883" from="518783883" to="1955883404" numLanes="1" speed="8.33" />
	<edge id="23407463_1898125225_253420925_1898125225" from="1898125225" to="253420969" numLanes="2" speed="13.89" />
	<edge id="23407463_1898125225_253420925_253420969" from="253420969" to="253420970" numLanes="2" speed="13.89" />
	<edge id="23407463_1898125225_253420925_253420970" from="253420970" to="253420971" numLanes="2" speed="13.89" />
	<edge id="23407463_1898125225_253420925_253420971" from="253420971" to="3122917539" numLanes="2" speed="13.89" />
	<edge id="23407463_1898125225_253420925_3122917539" from="3122917539" to="253420925" numLanes="2" speed="13.89" />
	<edge id="133666655_1604868800_1471211282_1604868800" from="1604868800" to="1604868793" numLanes="1" speed="8.33" />
	<edge id="133666655_1604868800_1471211282_1604868793" from="1604868793" to="1471211282" numLanes="1" speed="8.33" />
	<edge id="41677260_1597707311_512517267_1597707311" from="1597707311" to="1898376505" numLanes="1" speed="8.33" />
	<edge id="41677260_1597707311_512517267_1898376505" from="1898376505" to="512517267" numLanes="1" speed="8.33" />
	<edge id="21581146_232348498_1471211300_232348498" from="232348498" to="1471211300" numLanes="2" speed="13.89" />
	<edge id="133666655_1471211295_1471211300_1471211295" from="1471211295" to="1604868786" numLanes="1" speed="8.33" />
	<edge id="133666655_1471211295_1471211300_1604868786" from="1604868786" to="1471211300" numLanes="1" speed="8.33" />
	<edge id="104684859_1207489111_518783873_1207489111" from="1207489111" to="5673759041" numLanes="1" speed="8.33" />
	<edge id="104684859_1207489111_518783873_5673759041" from="5673759041" to="518783873" numLanes="1" speed="8.33" />
	<edge id="23407477_1604868800_253420926_1604868800" from="1604868800" to="253421042" numLanes="2" speed="13.89" />
	<edge id="23407477_1604868800_253420926_253421042" from="253421042" to="253420926" numLanes="2" speed="13.89" />
	<edge id="41907626_1205623151_518783286_1205623151" from="1205623151" to="1205623123" numLanes="1" speed="8.33" />
	<edge id="41907626_1205623151_518783286_1205623123" from="1205623123" to="518783863" numLanes="1" speed="8.33" />
	<edge id="41907626_1205623151_518783286_518783863" from="518783863" to="518783286" numLanes="1" speed="8.33" />
	<edge id="307205120_3122900768_253420957_3122900768" from="3122900768" to="3122900765" numLanes="2" speed="8.33" />
	<edge id="307205120_3122900768_253420957_3122900765" from="3122900765" to="3122900766" numLanes="2" speed="8.33" />
	<edge id="307205120_3122900768_253420957_3122900766" from="3122900766" to="4964912589" numLanes="2" speed="8.33" />
	<edge id="307205120_3122900768_253420957_4964912589" from="4964912589" to="253420957" numLanes="2" speed="8.33" />
	<edge id="133666655_1471205259_1471211282_1471205259" from="1471205259" to="1471211287" numLanes="1" speed="8.33" />
	<edge id="133666655_1471205259_1471211282_1471211287" from="1471211287" to="1604868788" numLanes="1" speed="8.33" />
	<edge id="133666655_1471205259_1471211282_1604868788" from="1604868788" to="1471211282" numLanes="1" speed="8.33" />
	<edge id="23407443_253420925_518783851_253420925" from="253420925" to="518783851" numLanes="1" speed="13.89" />
	<edge id="23407459_253420925_254120463_253420925" from="253420925" to="253420962" numLanes="2" speed="13.89" />
	<edge id="23407459_253420925_254120463_253420962" from="253420962" to="3122917540" numLanes="2" speed="13.89" />
	<edge id="23407459_253420925_254120463_3122917540" from="3122917540" to="1604850605" numLanes="2" speed="13.89" />
	<edge id="23407459_253420925_254120463_1604850605" from="1604850605" to="253420923" numLanes="2" speed="13.89" />
	<edge id="23407459_253420925_254120463_253420923" from="253420923" to="254120463" numLanes="2" speed="13.89" />
	<edge id="133666655_1604868800_1471211295_1604868800" from="1604868800" to="1471211290" numLanes="1" speed="8.33" />
	<edge id="133666655_1604868800_1471211295_1471211290" from="1471211290" to="1604868782" numLanes="1" speed="8.33" />
	<edge id="133666655_1604868800_1471211295_1604868782" from="1604868782" to="1471211295" numLanes="1" speed="8.33" />
	<edge id="321639583_254120464_254120468_254120464" from="254120464" to="254120465" numLanes="2" speed="13.89" />
	<edge id="321639583_254120464_254120468_254120465" from="254120465" to="1604850604" numLanes="2" speed="13.89" />
	<edge id="321639583_254120464_254120468_1604850604" from="1604850604" to="1898125184" numLanes="2" speed="13.89" />
	<edge id="321639583_254120464_254120468_1898125184" from="1898125184" to="254120466" numLanes="2" speed="13.89" />
	<edge id="321639583_254120464_254120468_254120466" from="254120466" to="1604850585" numLanes="2" speed="13.89" />
	<edge id="321639583_254120464_254120468_1604850585" from="1604850585" to="1898125185" numLanes="2" speed="13.89" />
	<edge id="321639583_254120464_254120468_1898125185" from="1898125185" to="254120467" numLanes="2" speed="13.89" />
	<edge id="321639583_254120464_254120468_254120467" from="254120467" to="1604850589" numLanes="2" speed="13.89" />
	<edge id="321639583_254120464_254120468_1604850589" from="1604850589" to="1604850601" numLanes="2" speed="13.89" />
	<edge id="321639583_254120464_254120468_1604850601" from="1604850601" to="1604850602" numLanes="2" speed="13.89" />
	<edge id="321639583_254120464_254120468_1604850602" from="1604850602" to="254120468" numLanes="2" speed="13.89" />
	<edge id="41907626_518783286_1205623151_518783286" from="518783286" to="518783863" numLanes="1" speed="8.33" />
	<edge id="41907626_518783286_1205623151_518783863" from="518783863" to="1205623123" numLanes="1" speed="8.33" />
	<edge id="41907626_518783286_1205623151_1205623123" from="1205623123" to="1205623151" numLanes="1" speed="8.33" />
	<edge id="321639583_254120468_254120470_254120468" from="254120468" to="1604850586" numLanes="2" speed="13.89" />
	<edge id="321639583_254120468_254120470_1604850586" from="1604850586" to="254120470" numLanes="2" speed="13.89" />
	<edge id="104684859_518783873_1207489137_518783873" from="518783873" to="1207489141" numLanes="1" speed="8.33" />
	<edge id="104684859_518783873_1207489137_1207489141" from="1207489141" to="1955883092" numLanes="1" speed="8.33" />
	<edge id="104684859_518783873_1207489137_1955883092" from="1955883092" to="1207489137" numLanes="1" speed="8.33" />
	<edge id="104684862_518783883_1207489109_518783883" from="518783883" to="518783876" numLanes="1" speed="8.33" />
	<edge id="104684862_518783883_1207489109_518783876" from="518783876" to="1205623163" numLanes="1" speed="8.33" />
	<edge id="104684862_518783883_1207489109_1205623163" from="1205623163" to="1207489109" numLanes="1" speed="8.33" />
	<edge id="41907627_1207489135_518783873_1207489135" from="1207489135" to="518783873" numLanes="1" speed="8.33" />
	<edge id="23407457_253420927_253420957_253420927" from="253420927" to="253420957" numLanes="2" speed="13.89" />
	<edge id="41677251_512517255_512517267_512517255" from="512517255" to="512517267" numLanes="1" speed="8.33" />
	<edge id="41907626_518783859_1205623151_518783859" from="518783859" to="1205623101" numLanes="1" speed="8.33" />
	<edge id="41907626_518783859_1205623151_1205623101" from="1205623101" to="1205623151" numLanes="1" speed="8.33" />
	<edge id="179437941_1898125180_1898125225_1898125180" from="1898125180" to="1898125225" numLanes="1" speed="5.56" />
	<edge id="122249114_1604868779_1366649905_1604868779" from="1604868779" to="1366649906" numLanes="1" speed="5.56" />
	<edge id="122249114_1604868779_1366649905_1366649906" from="1366649906" to="1366649897" numLanes="1" speed="5.56" />
	<edge id="122249114_1604868779_1366649905_1366649897" from="1366649897" to="1366649895" numLanes="1" speed="5.56" />
	<edge id="122249114_1604868779_1366649905_1366649895" from="1366649895" to="1366649903" numLanes="1" speed="5.56" />
	<edge id="122249114_1604868779_1366649905_1366649903" from="1366649903" to="1366649905" numLanes="1" speed="5.56" />
	<edge id="21580836_213716377_518783835_213716377" from="213716377" to="5795604945" numLanes="2" speed="13.89" />
	<edge id="21580836_213716377_518783835_5795604945" from="5795604945" to="232346733" numLanes="2" speed="13.89" />
	<edge id="21580836_213716377_518783835_232346733" from="232346733" to="232346735" numLanes="2" speed="13.89" />
	<edge id="21580836_213716377_518783835_232346735" from="232346735" to="232346736" numLanes="2" speed="13.89" />
	<edge id="21580836_213716377_518783835_232346736" from="232346736" to="232346737" numLanes="2" speed="13.89" />
	<edge id="21580836_213716377_518783835_232346737" from="232346737" to="232346738" numLanes="2" speed="13.89" />
	<edge id="21580836_213716377_518783835_232346738" from="232346738" to="1589739779" numLanes="2" speed="13.89" />
	<edge id="21580836_213716377_518783835_1589739779" from="1589739779" to="518783835" numLanes="2" speed="13.89" />
	<edge id="23407477_232348481_1604868800_232348481" from="232348481" to="1604868800" numLanes="2" speed="13.89" />
	<edge id="23465321_254120461_254120463_254120461" from="254120461" to="1898125267" numLanes="2" speed="13.89" />
	<edge id="23465321_254120461_254120463_1898125267" from="1898125267" to="1604850608" numLanes="2" speed="13.89" />
	<edge id="23465321_254120461_254120463_1604850608" from="1604850608" to="1898125233" numLanes="2" speed="13.89" />
	<edge id="23465321_254120461_254120463_1898125233" from="1898125233" to="254120462" numLanes="2" speed="13.89" />
	<edge id="23465321_254120461_254120463_254120462" from="254120462" to="1898125218" numLanes="2" speed="13.89" />
	<edge id="23465321_254120461_254120463_1898125218" from="1898125218" to="254120778" numLanes="2" speed="13.89" />
	<edge id="23465321_254120461_254120463_254120778" from="254120778" to="1898125214" numLanes="2" speed="13.89" />
	<edge id="23465321_254120461_254120463_1898125214" from="1898125214" to="1604850592" numLanes="2" speed="13.89" />
	<edge id="23465321_254120461_254120463_1604850592" from="1604850592" to="254120463" numLanes="2" speed="13.89" />
	<edge id="41907627_518783873_1207489135_518783873" from="518783873" to="1207489135" numLanes="1" speed="8.33" />
	<edge id="41907626_1205623151_518783859_1205623151" from="1205623151" to="1205623101" numLanes="1" speed="8.33" />
	<edge id="41907626_1205623151_518783859_1205623101" from="1205623101" to="518783859" numLanes="1" speed="8.33" />
	<edge id="21580836_1471211295_232348480_1471211295" from="1471211295" to="232348480" numLanes="2" speed="13.89" />
	<edge id="23407478_1471211282_232362059_1471211282" from="1471211282" to="232362059" numLanes="2" speed="13.89" />
	<edge id="133666655_1471205259_1604868779_1471205259" from="1471205259" to="1471205388" numLanes="1" speed="8.33" />
	<edge id="133666655_1471205259_1604868779_1471205388" from="1471205388" to="1937769514" numLanes="1" speed="8.33" />
	<edge id="133666655_1471205259_1604868779_1937769514" from="1937769514" to="1471205565" numLanes="1" speed="8.33" />
	<edge id="133666655_1471205259_1604868779_1471205565" from="1471205565" to="1471205832" numLanes="1" speed="8.33" />
	<edge id="133666655_1471205259_1604868779_1471205832" from="1471205832" to="5897691520" numLanes="1" speed="8.33" />
	<edge id="133666655_1471205259_1604868779_5897691520" from="5897691520" to="5897691519" numLanes="1" speed="8.33" />
	<edge id="133666655_1471205259_1604868779_5897691519" from="5897691519" to="6932962097" numLanes="1" speed="8.33" />
	<edge id="133666655_1471205259_1604868779_6932962097" from="6932962097" to="1471205411" numLanes="1" speed="8.33" />
	<edge id="133666655_1471205259_1604868779_1471205411" from="1471205411" to="1471205643" numLanes="1" speed="8.33" />
	<edge id="133666655_1471205259_1604868779_1471205643" from="1471205643" to="1471205395" numLanes="1" speed="8.33" />
	<edge id="133666655_1471205259_1604868779_1471205395" from="1471205395" to="1471205760" numLanes="1" speed="8.33" />
	<edge id="133666655_1471205259_1604868779_1471205760" from="1471205760" to="1471205599" numLanes="1" speed="8.33" />
	<edge id="133666655_1471205259_1604868779_1471205599" from="1471205599" to="6206446641" numLanes="1" speed="8.33" />
	<edge id="133666655_1471205259_1604868779_6206446641" from="6206446641" to="1471205448" numLanes="1" speed="8.33" />
	<edge id="133666655_1471205259_1604868779_1471205448" from="1471205448" to="1471205655" numLanes="1" speed="8.33" />
	<edge id="133666655_1471205259_1604868779_1471205655" from="1471205655" to="1774105377" numLanes="1" speed="8.33" />
	<edge id="133666655_1471205259_1604868779_1774105377" from="1774105377" to="1471205282" numLanes="1" speed="8.33" />
	<edge id="133666655_1471205259_1604868779_1471205282" from="1471205282" to="1471205260" numLanes="1" speed="8.33" />
	<edge id="133666655_1471205259_1604868779_1471205260" from="1471205260" to="1471205281" numLanes="1" speed="8.33" />
	<edge id="133666655_1471205259_1604868779_1471205281" from="1471205281" to="1774105376" numLanes="1" speed="8.33" />
	<edge id="133666655_1471205259_1604868779_1774105376" from="1774105376" to="1471205799" numLanes="1" speed="8.33" />
	<edge id="133666655_1471205259_1604868779_1471205799" from="1471205799" to="1471205852" numLanes="1" speed="8.33" />
	<edge id="133666655_1471205259_1604868779_1471205852" from="1471205852" to="6206446637" numLanes="1" speed="8.33" />
	<edge id="133666655_1471205259_1604868779_6206446637" from="6206446637" to="1471205710" numLanes="1" speed="8.33" />
	<edge id="133666655_1471205259_1604868779_1471205710" from="1471205710" to="1471205271" numLanes="1" speed="8.33" />
	<edge id="133666655_1471205259_1604868779_1471205271" from="1471205271" to="1471205229" numLanes="1" speed="8.33" />
	<edge id="133666655_1471205259_1604868779_1471205229" from="1471205229" to="1471205233" numLanes="1" speed="8.33" />
	<edge id="133666655_1471205259_1604868779_1471205233" from="1471205233" to="1471205323" numLanes="1" speed="8.33" />
	<edge id="133666655_1471205259_1604868779_1471205323" from="1471205323" to="6206451028" numLanes="1" speed="8.33" />
	<edge id="133666655_1471205259_1604868779_6206451028" from="6206451028" to="1471205238" numLanes="1" speed="8.33" />
	<edge id="133666655_1471205259_1604868779_1471205238" from="1471205238" to="1471205237" numLanes="1" speed="8.33" />
	<edge id="133666655_1471205259_1604868779_1471205237" from="1471205237" to="1471205724" numLanes="1" speed="8.33" />
	<edge id="133666655_1471205259_1604868779_1471205724" from="1471205724" to="1471205461" numLanes="1" speed="8.33" />
	<edge id="133666655_1471205259_1604868779_1471205461" from="1471205461" to="6206451102" numLanes="1" speed="8.33" />
	<edge id="133666655_1471205259_1604868779_6206451102" from="6206451102" to="1471205562" numLanes="1" speed="8.33" />
	<edge id="133666655_1471205259_1604868779_1471205562" from="1471205562" to="1471205236" numLanes="1" speed="8.33" />
	<edge id="133666655_1471205259_1604868779_1471205236" from="1471205236" to="1471205317" numLanes="1" speed="8.33" />
	<edge id="133666655_1471205259_1604868779_1471205317" from="1471205317" to="1471205244" numLanes="1" speed="8.33" />
	<edge id="133666655_1471205259_1604868779_1471205244" from="1471205244" to="1471205638" numLanes="1" speed="8.33" />
	<edge id="133666655_1471205259_1604868779_1471205638" from="1471205638" to="1471205766" numLanes="1" speed="8.33" />
	<edge id="133666655_1471205259_1604868779_1471205766" from="1471205766" to="1471205420" numLanes="1" speed="8.33" />
	<edge id="133666655_1471205259_1604868779_1471205420" from="1471205420" to="1471205479" numLanes="1" speed="8.33" />
	<edge id="133666655_1471205259_1604868779_1471205479" from="1471205479" to="6206465064" numLanes="1" speed="8.33" />
	<edge id="133666655_1471205259_1604868779_6206465064" from="6206465064" to="1471205274" numLanes="1" speed="8.33" />
	<edge id="133666655_1471205259_1604868779_1471205274" from="1471205274" to="1471205529" numLanes="1" speed="8.33" />
	<edge id="133666655_1471205259_1604868779_1471205529" from="1471205529" to="1471205793" numLanes="1" speed="8.33" />
	<edge id="133666655_1471205259_1604868779_1471205793" from="1471205793" to="1774105329" numLanes="1" speed="8.33" />
	<edge id="133666655_1471205259_1604868779_1774105329" from="1774105329" to="1471205666" numLanes="1" speed="8.33" />
	<edge id="133666655_1471205259_1604868779_1471205666" from="1471205666" to="1471205801" numLanes="1" speed="8.33" />
	<edge id="133666655_1471205259_1604868779_1471205801" from="1471205801" to="1471205697" numLanes="1" speed="8.33" />
	<edge id="133666655_1471205259_1604868779_1471205697" from="1471205697" to="1471205356" numLanes="1" speed="8.33" />
	<edge id="133666655_1471205259_1604868779_1471205356" from="1471205356" to="1471205758" numLanes="1" speed="8.33" />
	<edge id="133666655_1471205259_1604868779_1471205758" from="1471205758" to="1471205352" numLanes="1" speed="8.33" />
	<edge id="133666655_1471205259_1604868779_1471205352" from="1471205352" to="1471205309" numLanes="1" speed="8.33" />
	<edge id="133666655_1471205259_1604868779_1471205309" from="1471205309" to="1471205325" numLanes="1" speed="8.33" />
	<edge id="133666655_1471205259_1604868779_1471205325" from="1471205325" to="1471205533" numLanes="1" speed="8.33" />
	<edge id="133666655_1471205259_1604868779_1471205533" from="1471205533" to="1471205345" numLanes="1" speed="8.33" />
	<edge id="133666655_1471205259_1604868779_1471205345" from="1471205345" to="1471205360" numLanes="1" speed="8.33" />
	<edge id="133666655_1471205259_1604868779_1471205360" from="1471205360" to="1471205261" numLanes="1" speed="8.33" />
	<edge id="133666655_1471205259_1604868779_1471205261" from="1471205261" to="1471205263" numLanes="1" speed="8.33" />
	<edge id="133666655_1471205259_1604868779_1471205263" from="1471205263" to="1471205609" numLanes="1" speed="8.33" />
	<edge id="133666655_1471205259_1604868779_1471205609" from="1471205609" to="1471205407" numLanes="1" speed="8.33" />
	<edge id="133666655_1471205259_1604868779_1471205407" from="1471205407" to="1471205844" numLanes="1" speed="8.33" />
	<edge id="133666655_1471205259_1604868779_1471205844" from="1471205844" to="1471205652" numLanes="1" speed="8.33" />
	<edge id="133666655_1471205259_1604868779_1471205652" from="1471205652" to="1471205842" numLanes="1" speed="8.33" />
	<edge id="133666655_1471205259_1604868779_1471205842" from="1471205842" to="1471205791" numLanes="1" speed="8.33" />
	<edge id="133666655_1471205259_1604868779_1471205791" from="1471205791" to="1471205392" numLanes="1" speed="8.33" />
	<edge id="133666655_1471205259_1604868779_1471205392" from="1471205392" to="1471205390" numLanes="1" speed="8.33" />
	<edge id="133666655_1471205259_1604868779_1471205390" from="1471205390" to="1471205543" numLanes="1" speed="8.33" />
	<edge id="133666655_1471205259_1604868779_1471205543" from="1471205543" to="1471205503" numLanes="1" speed="8.33" />
	<edge id="133666655_1471205259_1604868779_1471205503" from="1471205503" to="1471205414" numLanes="1" speed="8.33" />
	<edge id="133666655_1471205259_1604868779_1471205414" from="1471205414" to="1471205372" numLanes="1" speed="8.33" />
	<edge id="133666655_1471205259_1604868779_1471205372" from="1471205372" to="1471205367" numLanes="1" speed="8.33" />
	<edge id="133666655_1471205259_1604868779_1471205367" from="1471205367" to="1471205807" numLanes="1" speed="8.33" />
	<edge id="133666655_1471205259_1604868779_1471205807" from="1471205807" to="1471205439" numLanes="1" speed="8.33" />
	<edge id="133666655_1471205259_1604868779_1471205439" from="1471205439" to="1471205443" numLanes="1" speed="8.33" />
	<edge id="133666655_1471205259_1604868779_1471205443" from="1471205443" to="1471205770" numLanes="1" speed="8.33" />
	<edge id="133666655_1471205259_1604868779_1471205770" from="1471205770" to="1471205788" numLanes="1" speed="8.33" />
	<edge id="133666655_1471205259_1604868779_1471205788" from="1471205788" to="1471205277" numLanes="1" speed="8.33" />
	<edge id="133666655_1471205259_1604868779_1471205277" from="1471205277" to="1471205467" numLanes="1" speed="8.33" />
	<edge id="133666655_1471205259_1604868779_1471205467" from="1471205467" to="1471205399" numLanes="1" speed="8.33" />
	<edge id="133666655_1471205259_1604868779_1471205399" from="1471205399" to="1471205855" numLanes="1" speed="8.33" />
	<edge id="133666655_1471205259_1604868779_1471205855" from="1471205855" to="1471205297" numLanes="1" speed="8.33" />
	<edge id="133666655_1471205259_1604868779_1471205297" from="1471205297" to="1471205354" numLanes="1" speed="8.33" />
	<edge id="133666655_1471205259_1604868779_1471205354" from="1471205354" to="1471205363" numLanes="1" speed="8.33" />
	<edge id="133666655_1471205259_1604868779_1471205363" from="1471205363" to="1471205389" numLanes="1" speed="8.33" />
	<edge id="133666655_1471205259_1604868779_1471205389" from="1471205389" to="1471205654" numLanes="1" speed="8.33" />
	<edge id="133666655_1471205259_1604868779_1471205654" from="1471205654" to="1471205464" numLanes="1" speed="8.33" />
	<edge id="133666655_1471205259_1604868779_1471205464" from="1471205464" to="1471205746" numLanes="1" speed="8.33" />
	<edge id="133666655_1471205259_1604868779_1471205746" from="1471205746" to="1471205313" numLanes="1" speed="8.33" />
	<edge id="133666655_1471205259_1604868779_1471205313" from="1471205313" to="1471205403" numLanes="1" speed="8.33" />
	<edge id="133666655_1471205259_1604868779_1471205403" from="1471205403" to="1471205524" numLanes="1" speed="8.33" />
	<edge id="133666655_1471205259_1604868779_1471205524" from="1471205524" to="1471205587" numLanes="1" speed="8.33" />
	<edge id="133666655_1471205259_1604868779_1471205587" from="1471205587" to="1471205592" numLanes="1" speed="8.33" />
	<edge id="133666655_1471205259_1604868779_1471205592" from="1471205592" to="1471205699" numLanes="1" speed="8.33" />
	<edge id="133666655_1471205259_1604868779_1471205699" from="1471205699" to="1471205810" numLanes="1" speed="8.33" />
	<edge id="133666655_1471205259_1604868779_1471205810" from="1471205810" to="1471205694" numLanes="1" speed="8.33" />
	<edge id="133666655_1471205259_1604868779_1471205694" from="1471205694" to="1471205606" numLanes="1" speed="8.33" />
	<edge id="133666655_1471205259_1604868779_1471205606" from="1471205606" to="1471205729" numLanes="1" speed="8.33" />
	<edge id="133666655_1471205259_1604868779_1471205729" from="1471205729" to="1471205846" numLanes="1" speed="8.33" />
	<edge id="133666655_1471205259_1604868779_1471205846" from="1471205846" to="1471205580" numLanes="1" speed="8.33" />
	<edge id="133666655_1471205259_1604868779_1471205580" from="1471205580" to="1471205830" numLanes="1" speed="8.33" />
	<edge id="133666655_1471205259_1604868779_1471205830" from="1471205830" to="1471205509" numLanes="1" speed="8.33" />
	<edge id="133666655_1471205259_1604868779_1471205509" from="1471205509" to="1471205506" numLanes="1" speed="8.33" />
	<edge id="133666655_1471205259_1604868779_1471205506" from="1471205506" to="1591446140" numLanes="1" speed="8.33" />
	<edge id="133666655_1471205259_1604868779_1591446140" from="1591446140" to="1471205576" numLanes="1" speed="8.33" />
	<edge id="133666655_1471205259_1604868779_1471205576" from="1471205576" to="1471205517" numLanes="1" speed="8.33" />
	<edge id="133666655_1471205259_1604868779_1471205517" from="1471205517" to="1471205794" numLanes="1" speed="8.33" />
	<edge id="133666655_1471205259_1604868779_1471205794" from="1471205794" to="1591446111" numLanes="1" speed="8.33" />
	<edge id="133666655_1471205259_1604868779_1591446111" from="1591446111" to="1471205840" numLanes="1" speed="8.33" />
	<edge id="133666655_1471205259_1604868779_1471205840" from="1471205840" to="1471205471" numLanes="1" speed="8.33" />
	<edge id="133666655_1471205259_1604868779_1471205471" from="1471205471" to="1471205504" numLanes="1" speed="8.33" />
	<edge id="133666655_1471205259_1604868779_1471205504" from="1471205504" to="1471205321" numLanes="1" speed="8.33" />
	<edge id="133666655_1471205259_1604868779_1471205321" from="1471205321" to="1591446113" numLanes="1" speed="8.33" />
	<edge id="133666655_1471205259_1604868779_1591446113" from="1591446113" to="1591407051" numLanes="1" speed="8.33" />
	<edge id="133666655_1471205259_1604868779_1591407051" from="1591407051" to="5836934721" numLanes="1" speed="8.33" />
	<edge id="133666655_1471205259_1604868779_5836934721" from="5836934721" to="1818309821" numLanes="1" speed="8.33" />
	<edge id="133666655_1471205259_1604868779_1818309821" from="1818309821" to="1818309824" numLanes="1" speed="8.33" />
	<edge id="133666655_1471205259_1604868779_1818309824" from="1818309824" to="1471205836" numLanes="1" speed="8.33" />
	<edge id="133666655_1471205259_1604868779_1471205836" from="1471205836" to="1471205573" numLanes="1" speed="8.33" />