<connections>
	<connection from="317809010_232362059_232348488_232362059" to="317809010_232362059_232348488_232348485" />
	<connection from="317809010_232362059_232348488_232348485" to="317809010_232362059_232348488_1604868804" />
	<connection from="317809010_232362059_232348488_1604868804" to="317809010_232362059_232348488_232348486" />
	<connection from="317809010_232362059_232348488_232348486" to="317809010_232348488_1366649896_232348488" />
	<connection from="41907627_1207489135_1207489109_1207489135" to="104684861_1207489109_1205623151_1207489109" />
	<connection from="41907627_1207489135_1207489109_1207489135" to="104684862_1207489109_518783883_1207489109" />
	<connection from="41907627_1207489135_1207489109_1207489135" to="41907627_1207489109_1207489135_1207489109" />
	<connection from="122249112_1366649905_1366649904_1366649905" to="122249112_1366649905_1366649904_1366649901" />
	<connection from="122249112_1366649905_1366649904_1366649901" to="122249112_1366649905_1366649904_1604868761" />
	<connection from="122249112_1366649905_1366649904_1604868761" to="122249112_1366649905_1366649904_1366649899" />
	<connection from="122249112_1366649905_1366649904_1366649899" to="122249112_1366649905_1366649904_1366649902" />
	<connection from="122249112_1366649905_1366649904_1366649902" to="122249112_1366649905_1366649904_1591372544" />
	<connection from="122249112_1366649905_1366649904_1591372544" to="122249112_1366649905_1366649904_1366649900" />
	<connection from="122249112_1366649905_1366649904_1366649900" to="122249112_1366649904_1366649905_1366649904" />
	<connection from="23407443_253420926_518783851_253420926" to="23407443_253420926_518783851_5673759044" />
	<connection from="23407443_253420926_518783851_5673759044" to="41907626_518783851_1207489116_518783851" />
	<connection from="23407443_253420926_518783851_5673759044" to="23407443_518783851_253420926_518783851" />
	<connection from="23407443_253420926_518783851_5673759044" to="23407443_518783851_253420925_518783851" />
	<connection from="104684860_1207489111_1207489135_1207489111" to="41907627_1207489135_1207489109_1207489135" />
	<connection from="104684860_1207489111_1207489135_1207489111" to="104684860_1207489135_1207489111_1207489135" />
	<connection from="104684860_1207489111_1207489135_1207489111" to="41907627_1207489135_518783873_1207489135" />
	<connection from="23407463_254120461_1898125225_254120461" to="23407463_254120461_1898125225_1604850599" />
	<connection from="23407463_254120461_1898125225_1604850599" to="23407463_1898125225_253420925_1898125225" />
	<connection from="23407463_254120461_1898125225_1604850599" to="179437941_1898125225_1898125180_1898125225" />
	<connection from="104684859_518783873_1207489111_518783873" to="104684859_518783873_1207489111_5673759041" />
	<connection from="104684859_518783873_1207489111_5673759041" to="104684859_1207489111_518783873_1207489111" />
	<connection from="104684859_518783873_1207489111_5673759041" to="104684860_1207489111_1207489135_1207489111" />
	<connection from="104684859_518783873_1207489111_5673759041" to="104684859_1207489111_518783859_1207489111" />
	<connection from="104684859_518783859_1207489111_518783859" to="104684859_518783859_1207489111_5673759042" />
	<connection from="104684859_518783859_1207489111_5673759042" to="104684859_1207489111_518783873_1207489111" />
	<connection from="104684859_518783859_1207489111_5673759042" to="104684860_1207489111_1207489135_1207489111" />
	<connection from="104684859_518783859_1207489111_5673759042" to="104684859_1207489111_518783859_1207489111" />
	<connection from="41907626_1207489116_518783851_1207489116" to="41907626_1207489116_518783851_5673759043" />
	<connection from="41907626_1207489116_518783851_5673759043" to="41907626_518783851_1207489116_518783851" />
	<connection from="41907626_1207489116_518783851_5673759043" to="23407443_518783851_253420926_518783851" />
	<connection from="41907626_1207489116_518783851_5673759043" to="23407443_518783851_253420925_518783851" />
	<connection from="21581146_512517255_232345031_512517255" to="21581146_512517255_232345031_1589739777" />
	<connection from="41677251_512517267_512517255_512517267" to="21581146_512517255_232345031_512517255" />
	<connection from="41677251_512517267_512517255_512517267" to="41677251_512517255_512517267_512517255" />
	<connection from="104684861_1207489109_1205623151_1207489109" to="104684861_1205623151_1207489109_1205623151" />
	<connection from="104684861_1207489109_1205623151_1207489109" to="41907626_1205623151_518783286_1205623151" />
	<connection from="104684861_1207489109_1205623151_1207489109" to="41907626_1205623151_518783859_1205623151" />
	<connection from="21582699_232362059_232364962_232362059" to="21582699_232362059_232364962_232362057" />
	<connection from="21582699_232362059_232364962_232362057" to="21582699_232362059_232364962_1818310360" />
	<connection from="21582699_232362059_232364962_1818310360" to="21582699_232362059_232364962_1604868832" />
	<connection from="21582699_232362059_232364962_1604868832" to="21582699_232362059_232364962_1604868798" />
	<connection from="21582699_232362059_232364962_1604868798" to="21582699_232362059_232364962_1898125189" />
	<connection from="21582699_232362059_232364962_1898125189" to="21582699_232362059_232364962_232362055" />
	<connection from="21582699_232362059_232364962_232362055" to="21582699_232362059_232364962_5897691522" />
	<connection from="21582699_232362059_232364962_5897691522" to="21582699_232362059_232364962_232364152" />
	<connection from="21582699_232362059_232364962_232364152" to="21582699_232362059_232364962_5897691523" />
	<connection from="21582699_232362059_232364962_5897691523" to="21582699_232362059_232364962_232364157" />
	<connection from="21582699_232362059_232364962_232364157" to="21582699_232362059_232364962_232364161" />
	<connection from="21582699_232362059_232364962_232364161" to="21582699_232362059_232364962_232364166" />
	<connection from="21582699_232362059_232364962_232364166" to="21582699_232362059_232364962_6206446649" />
	<connection from="21582699_232362059_232364962_6206446649" to="21582699_232362059_232364962_1628441216" />
	<connection from="727941872_518783883_518783286_518783883" to="727941872_518783883_518783286_4374347685" />
	<connection from="727941872_518783883_518783286_4374347685" to="41907626_518783286_1205623151_518783286" />
	<connection from="727941872_518783883_518783286_4374347685" to="41907626_518783286_518783835_518783286" />
	<connection from="727941872_518783883_518783286_4374347685" to="727941872_518783286_518783883_518783286" />
	<connection from="727941872_518783883_518783286_4374347685" to="41907607_518783286_649620241_518783286" />
	<connection from="185016849_518783883_1955883404_518783883" to="185016849_1955883404_518783883_1955883404" />
	<connection from="23407463_1898125225_253420925_1898125225" to="23407463_1898125225_253420925_253420969" />
	<connection from="23407463_1898125225_253420925_253420969" to="23407463_1898125225_253420925_253420970" />
	<connection from="23407463_1898125225_253420925_253420970" to="23407463_1898125225_253420925_253420971" />
	<connection from="23407463_1898125225_253420925_253420971" to="23407463_1898125225_253420925_3122917539" />
	<connection from="23407463_1898125225_253420925_3122917539" to="23407443_253420925_518783851_253420925" />
	<connection from="133666655_1604868800_1471211282_1604868800" to="133666655_1604868800_1471211282_1604868793" />
	<connection from="133666655_1604868800_1471211282_1604868793" to="133666655_1471211282_1471205259_1471211282" />
	<connection from="133666655_1604868800_1471211282_1604868793" to="23407478_1471211282_232362059_1471211282" />
	<connection from="133666655_1604868800_1471211282_1604868793" to="133666655_1471211282_1604868800_1471211282" />
	<connection from="41677260_1597707311_512517267_1597707311" to="41677260_1597707311_512517267_1898376505" />
	<connection from="41677260_1597707311_512517267_1898376505" to="41677251_512517267_512517255_512517267" />
	<connection from="41677260_1597707311_512517267_1898376505" to="41677260_512517267_1597707311_512517267" />
	<connection from="41677260_1597707311_512517267_1898376505" to="41677260_512517267_512516845_512517267" />
	<connection from="21581146_232348498_1471211300_232348498" to="133666655_1471211300_1471211288_1471211300" />
	<connection from="21581146_232348498_1471211300_232348498" to="133666655_1471211300_1471211295_1471211300" />
	<connection from="21581146_232348498_1471211300_232348498" to="21581146_1471211300_512517255_1471211300" />
	<connection from="133666655_1471211295_1471211300_1471211295" to="133666655_1471211295_1471211300_1604868786" />
	<connection from="133666655_1471211295_1471211300_1604868786" to="133666655_1471211300_1471211288_1471211300" />
	<connection from="133666655_1471211295_1471211300_1604868786" to="133666655_1471211300_1471211295_1471211300" />
	<connection from="133666655_1471211295_1471211300_1604868786" to="21581146_1471211300_512517255_1471211300" />
	<connection from="104684859_1207489111_518783873_1207489111" to="104684859_1207489111_518783873_5673759041" />
	<connection from="104684859_1207489111_518783873_5673759041" to="104684859_518783873_1207489137_518783873" />
	<connection from="104684859_1207489111_518783873_5673759041" to="104684859_518783873_1207489111_518783873" />
	<connection from="104684859_1207489111_518783873_5673759041" to="41907627_518783873_1207489135_518783873" />
	<connection from="23407477_1604868800_253420926_1604868800" to="23407477_1604868800_253420926_253421042" />
	<connection from="23407477_1604868800_253420926_253421042" to="23407478_253420926_1471211282_253420926" />
	<connection from="23407477_1604868800_253420926_253421042" to="23407443_253420926_518783851_253420926" />
	<connection from="41907626_1205623151_518783286_1205623151" to="41907626_1205623151_518783286_1205623123" />
	<connection from="41907626_1205623151_518783286_1205623123" to="41907626_1205623151_518783286_518783863" />
	<connection from="41907626_1205623151_518783286_518783863" to="41907626_518783286_1205623151_518783286" />
	<connection from="41907626_1205623151_518783286_518783863" to="41907626_518783286_518783835_518783286" />
	<connection from="41907626_1205623151_518783286_518783863" to="727941872_518783286_518783883_518783286" />
	<connection from="41907626_1205623151_518783286_518783863" to="41907607_518783286_649620241_518783286" />
	<connection from="307205120_3122900768_253420957_3122900768" to="307205120_3122900768_253420957_3122900765" />
	<connection from="307205120_3122900768_253420957_3122900765" to="307205120_3122900768_253420957_3122900766" />
	<connection from="307205120_3122900768_253420957_3122900766" to="307205120_3122900768_253420957_4964912589" />
	<connection from="307205120_3122900768_253420957_4964912589" to="23407457_253420957_254120468_253420957" />
	<connection from="133666655_1471205259_1471211282_1471205259" to="133666655_1471205259_1471211282_1471211287" />
	<connection from="133666655_1471205259_1471211282_1471211287" to="133666655_1471205259_1471211282_1604868788" />
	<connection from="133666655_1471205259_1471211282_1604868788" to="133666655_1471211282_1471205259_1471211282" />
	<connection from="133666655_1471205259_1471211282_1604868788" to="23407478_1471211282_232362059_1471211282" />
	<connection from="133666655_1471205259_1471211282_1604868788" to="133666655_1471211282_1604868800_1471211282" />
	<connection from="23407443_253420925_518783851_253420925" to="41907626_518783851_1207489116_518783851" />
	<connection from="23407443_253420925_518783851_253420925" to="23407443_518783851_253420926_518783851" />
	<connection from="23407443_253420925_518783851_253420925" to="23407443_518783851_253420925_518783851" />
	<connection from="23407459_253420925_254120463_253420925" to="23407459_253420925_254120463_253420962" />
	<connection from="23407459_253420925_254120463_253420962" to="23407459_253420925_254120463_3122917540" />
	<connection from="23407459_253420925_254120463_3122917540" to="23407459_253420925_254120463_1604850605" />
	<connection from="23407459_253420925_254120463_1604850605" to="23407459_253420925_254120463_253420923" />
	<connection from="23407459_253420925_254120463_253420923" to="321639583_254120463_254120464_254120463" />
	<connection from="133666655_1604868800_1471211295_1604868800" to="133666655_1604868800_1471211295_1471211290" />
	<connection from="133666655_1604868800_1471211295_1471211290" to="133666655_1604868800_1471211295_1604868782" />
	<connection from="133666655_1604868800_1471211295_1604868782" to="133666655_1471211295_1604868800_1471211295" />
	<connection from="133666655_1604868800_1471211295_1604868782" to="133666655_1471211295_1471211300_1471211295" />
	<connection from="133666655_1604868800_1471211295_1604868782" to="21580836_1471211295_232348480_1471211295" />
	<connection from="321639583_254120464_254120468_254120464" to="321639583_254120464_254120468_254120465" />
	<connection from="321639583_254120464_254120468_254120465" to="321639583_254120464_254120468_1604850604" />
	<connection from="321639583_254120464_254120468_1604850604" to="321639583_254120464_254120468_1898125184" />
	<connection from="321639583_254120464_254120468_1898125184" to="321639583_254120464_254120468_254120466" />
	<connection from="321639583_254120464_254120468_254120466" to="321639583_254120464_254120468_1604850585" />
	<connection from="321639583_254120464_254120468_1604850585" to="321639583_254120464_254120468_1898125185" />
	<connection from="321639583_254120464_254120468_1898125185" to="321639583_254120464_254120468_254120467" />
	<connection from="321639583_254120464_254120468_254120467" to="321639583_254120464_254120468_1604850589" />
	<connection from="321639583_254120464_254120468_1604850589" to="321639583_254120464_254120468_1604850601" />
	<connection from="321639583_254120464_254120468_1604850601" to="321639583_254120464_254120468_1604850602" />
	<connection from="321639583_254120464_254120468_1604850602" to="321639583_254120468_254120470_254120468" />
	<connection from="41907626_518783286_1205623151_518783286" to="41907626_518783286_1205623151_518783863" />
	<connection from="41907626_518783286_1205623151_518783863" to="41907626_518783286_1205623151_1205623123" />
	<connection from="41907626_518783286_1205623151_1205623123" to="104684861_1205623151_1207489109_1205623151" />
	<connection from="41907626_518783286_1205623151_1205623123" to="41907626_1205623151_518783286_1205623151" />
	<connection from="41907626_518783286_1205623151_1205623123" to="41907626_1205623151_518783859_1205623151" />
	<connection from="321639583_254120468_254120470_254120468" to="321639583_254120468_254120470_1604850586" />
	<connection from="321639583_254120468_254120470_1604850586" to="147256257_254120470_253420936_254120470" />
	<connection from="321639583_254120468_254120470_1604850586" to="321639601_254120470_254120646_254120470" />
	<connection from="104684859_518783873_1207489137_518783873" to="104684859_518783873_1207489137_1207489141" />
	<connection from="104684859_518783873_1207489137_1207489141" to="104684859_518783873_1207489137_1955883092" />
	<connection from="104684859_518783873_1207489137_1955883092" to="104684859_1207489137_518783873_1207489137" />
	<connection from="104684859_518783873_1207489137_1955883092" to="595241290_1207489137_1207489116_1207489137" />
	<connection from="104684862_518783883_1207489109_518783883" to="104684862_518783883_1207489109_518783876" />
	<connection from="104684862_518783883_1207489109_518783876" to="104684862_518783883_1207489109_1205623163" />
	<connection from="104684862_518783883_1207489109_1205623163" to="104684861_1207489109_1205623151_1207489109" />
	<connection from="104684862_518783883_1207489109_1205623163" to="104684862_1207489109_518783883_1207489109" />
	<connection from="104684862_518783883_1207489109_1205623163" to="41907627_1207489109_1207489135_1207489109" />
	<connection from="41907627_1207489135_518783873_1207489135" to="104684859_518783873_1207489137_518783873" />
	<connection from="41907627_1207489135_518783873_1207489135" to="104684859_518783873_1207489111_518783873" />
	<connection from="41907627_1207489135_518783873_1207489135" to="41907627_518783873_1207489135_518783873" />
	<connection from="23407457_253420927_253420957_253420927" to="23407457_253420957_254120468_253420957" />
	<connection from="41677251_512517255_512517267_512517255" to="41677251_512517267_512517255_512517267" />
	<connection from="41677251_512517255_512517267_512517255" to="41677260_512517267_1597707311_512517267" />
	<connection from="41677251_512517255_512517267_512517255" to="41677260_512517267_512516845_512517267" />
	<connection from="41907626_518783859_1205623151_518783859" to="41907626_518783859_1205623151_1205623101" />
	<connection from="41907626_518783859_1205623151_1205623101" to="104684861_1205623151_1207489109_1205623151" />
	<connection from="41907626_518783859_1205623151_1205623101" to="41907626_1205623151_518783286_1205623151" />
	<connection from="41907626_518783859_1205623151_1205623101" to="41907626_1205623151_518783859_1205623151" />
	<connection from="179437941_1898125180_1898125225_1898125180" to="23407463_1898125225_253420925_1898125225" />
	<connection from="179437941_1898125180_1898125225_1898125180" to="179437941_1898125225_1898125180_1898125225" />
	<connection from="122249114_1604868779_1366649905_1604868779" to="122249114_1604868779_1366649905_1366649906" />
	<connection from="122249114_1604868779_1366649905_1366649906" to="122249114_1604868779_1366649905_1366649897" />
	<connection from="122249114_1604868779_1366649905_1366649897" to="122249114_1604868779_1366649905_1366649895" />
	<connection from="122249114_1604868779_1366649905_1366649895" to="122249114_1604868779_1366649905_1366649903" />
	<connection from="122249114_1604868779_1366649905_1366649903" to="122249112_1366649905_1366649904_1366649905" />
	<connection from="122249114_1604868779_1366649905_1366649903" to="122249112_1366649905_1471211288_1366649905" />
	<connection from="21580836_213716377_518783835_213716377" to="21580836_213716377_518783835_5795604945" />
	<connection from="21580836_213716377_518783835_5795604945" to="21580836_213716377_518783835_232346733" />
	<connection from="21580836_213716377_518783835_232346733" to="21580836_213716377_518783835_232346735" />
	<connection from="21580836_213716377_518783835_232346735" to="21580836_213716377_518783835_232346736" />
	<connection from="21580836_213716377_518783835_232346736" to="21580836_213716377_518783835_232346737" />
	<connection from="21580836_213716377_518783835_232346737" to="21580836_213716377_518783835_232346738" />
	<connection from="21580836_213716377_518783835_232346738" to="21580836_213716377_518783835_1589739779" />
	<connection from="21580836_213716377_518783835_1589739779" to="21580836_518783835_1471211295_518783835" />
	<connection from="21580836_213716377_518783835_1589739779" to="41907626_518783835_518783286_518783835" />
	<connection from="23407477_232348481_1604868800_232348481" to="133666655_1604868800_1471211282_1604868800" />
	<connection from="23407477_232348481_1604868800_232348481" to="133666655_1604868800_1471211295_1604868800" />
	<connection from="23407477_232348481_1604868800_232348481" to="23407477_1604868800_253420926_1604868800" />
	<connection from="23465321_254120461_254120463_254120461" to="23465321_254120461_254120463_1898125267" />
	<connection from="23465321_254120461_254120463_1898125267" to="23465321_254120461_254120463_1604850608" />
	<connection from="23465321_254120461_254120463_1604850608" to="23465321_254120461_254120463_1898125233" />
	<connection from="23465321_254120461_254120463_1898125233" to="23465321_254120461_254120463_254120462" />
	<connection from="23465321_254120461_254120463_254120462" to="23465321_254120461_254120463_1898125218" />
	<connection from="23465321_254120461_254120463_1898125218" to="23465321_254120461_254120463_254120778" />
	<connection from="23465321_254120461_254120463_254120778" to="23465321_254120461_254120463_1898125214" />
	<connection from="23465321_254120461_254120463_1898125214" to="23465321_254120461_254120463_1604850592" />
	<connection from="23465321_254120461_254120463_1604850592" to="321639583_254120463_254120464_254120463" />
	<connection from="41907627_518783873_1207489135_518783873" to="41907627_1207489135_1207489109_1207489135" />
	<connection from="41907627_518783873_1207489135_518783873" to="104684860_1207489135_1207489111_1207489135" />
	<connection from="41907627_518783873_1207489135_518783873" to="41907627_1207489135_518783873_1207489135" />
	<connection from="41907626_1205623151_518783859_1205623151" to="41907626_1205623151_518783859_1205623101" />
	<connection from="41907626_1205623151_518783859_1205623101" to="41907626_518783859_1205623151_518783859" />
	<connection from="41907626_1205623151_518783859_1205623101" to="41907626_518783859_649620241_518783859" />
	<connection from="41907626_1205623151_518783859_1205623101" to="104684859_518783859_1207489111_518783859" />
	<connection from="21580836_1471211295_232348480_1471211295" to="321639540_232348480_232348481_232348480" />
	<connection from="23407478_1471211282_232362059_1471211282" to="317809010_232362059_232348488_232362059" />
	<connection from="23407478_1471211282_232362059_1471211282" to="21582699_232362059_232364962_232362059" />
	<connection from="133666655_1471205259_1604868779_1471205259" to="133666655_1471205259_1604868779_1471205388" />
	<connection from="133666655_1471205259_1604868779_1471205388" to="133666655_1471205259_1604868779_1937769514" />
	<connection from="133666655_1471205259_1604868779_1937769514" to="133666655_1471205259_1604868779_1471205565" />
	<connection from="133666655_1471205259_1604868779_1471205565" to="133666655_1471205259_1604868779_1471205832" />
	<connection from="133666655_1471205259_1604868779_1471205832" to="133666655_1471205259_1604868779_5897691520" />
	<connection from="133666655_1471205259_1604868779_5897691520" to="133666655_1471205259_1604868779_5897691519" />
	<connection from="133666655_1471205259_1604868779_5897691519" to="133666655_1471205259_1604868779_6932962097" />
	<connection from="133666655_1471205259_1604868779_6932962097" to="133666655_1471205259_1604868779_1471205411" />
	<connection from="133666655_1471205259_1604868779_1471205411" to="133666655_1471205259_1604868779_1471205643" />
	<connection from="133666655_1471205259_1604868779_1471205643" to="133666655_1471205259_1604868779_1471205395" />
	<connection from="133666655_1471205259_1604868779_1471205395" to="133666655_1471205259_1604868779_1471205760" />
	<connection from="133666655_1471205259_1604868779_1471205760" to="133666655_1471205259_1604868779_1471205599" />
	<connection from="133666655_1471205259_1604868779_1471205599" to="133666655_1471205259_1604868779_6206446641" />
	<connection from="133666655_1471205259_1604868779_6206446641" to="133666655_1471205259_1604868779_1471205448" />
	<connection from="133666655_1471205259_1604868779_1471205448" to="133666655_1471205259_1604868779_1471205655" />
	<connection from="133666655_1471205259_1604868779_1471205655" to="133666655_1471205259_1604868779_1774105377" />
	<connection from="133666655_1471205259_1604868779_1774105377" to="133666655_1471205259_1604868779_1471205282" />
	<connection from="133666655_1471205259_1604868779_1471205282" to="133666655_1471205259_1604868779_1471205260" />
	<connection from="133666655_1471205259_1604868779_1471205260" to="133666655_1471205259_1604868779_1471205281" />
	<connection from="133666655_1471205259_1604868779_1471205281" to="133666655_1471205259_1604868779_1774105376" />
	<connection from="133666655_1471205259_1604868779_1774105376" to="133666655_1471205259_1604868779_1471205799" />
	<connection from="133666655_1471205259_1604868779_1471205799" to="133666655_1471205259_1604868779_1471205852" />
	<connection from="133666655_1471205259_1604868779_1471205852" to="133666655_1471205259_1604868779_6206446637" />
	<connection from="133666655_1471205259_1604868779_6206446637" to="133666655_1471205259_1604868779_1471205710" />
	<connection from="133666655_1471205259_1604868779_1471205710" to="133666655_1471205259_1604868779_1471205271" />
	<connection from="133666655_1471205259_1604868779_1471205271" to="133666655_1471205259_1604868779_1471205229" />
	<connection from="133666655_1471205259_1604868779_1471205229" to="133666655_1471205259_1604868779_1471205233" />
	<connection from="133666655_1471205259_1604868779_1471205233" to="133666655_1471205259_1604868779_1471205323" />
	<connection from="133666655_1471205259_1604868779_1471205323" to="133666655_1471205259_1604868779_6206451028" />
	<connection from="133666655_1471205259_1604868779_6206451028" to="133666655_1471205259_1604868779_1471205238" />
	<connection from="133666655_1471205259_1604868779_1471205238" to="133666655_1471205259_1604868779_1471205237" />
	<connection from="133666655_1471205259_1604868779_1471205237" to="133666655_1471205259_1604868779_1471205724" />
	<connection from="133666655_1471205259_1604868779_1471205724" to="133666655_1471205259_1604868779_1471205461" />
	<connection from="133666655_1471205259_1604868779_1471205461" to="133666655_1471205259_1604868779_6206451102" />
	<connection from="133666655_1471205259_1604868779_6206451102" to="133666655_1471205259_1604868779_1471205562" />
	<connection from="133666655_1471205259_1604868779_1471205562" to="133666655_1471205259_1604868779_1471205236" />
	<connection from="133666655_1471205259_1604868779_1471205236" to="133666655_1471205259_1604868779_1471205317" />
	<connection from="133666655_1471205259_1604868779_1471205317" to="133666655_1471205259_1604868779_1471205244" />
	<connection from="133666655_1471205259_1604868779_1471205244" to="133666655_1471205259_1604868779_1471205638" />
	<connection from="133666655_1471205259_1604868779_1471205638" to="133666655_1471205259_1604868779_1471205766" />
	<connection from="133666655_1471205259_1604868779_1471205766" to="133666655_1471205259_1604868779_1471205420" />
	<connection from="133666655_1471205259_1604868779_1471205420" to="133666655_1471205259_1604868779_1471205479" />
	<connection from="133666655_1471205259_1604868779_1471205479" to="133666655_1471205259_1604868779_6206465064" />
	<connection from="133666655_1471205259_1604868779_6206465064" to="133666655_1471205259_1604868779_1471205274" />
	<connection from="133666655_1471205259_1604868779_1471205274" to="133666655_1471205259_1604868779_1471205529" />
	<connection from="133666655_1471205259_1604868779_1471205529" to="133666655_1471205259_1604868779_1471205793" />
	<connection from="133666655_1471205259_1604868779_1471205793" to="133666655_1471205259_1604868779_1774105329" />
	<connection from="133666655_1471205259_1604868779_1774105329" to="133666655_1471205259_1604868779_1471205666" />
	<connection from="133666655_1471205259_1604868779_1471205666" to="133666655_1471205259_1604868779_1471205801" />
	<connection from="133666655_1471205259_1604868779_1471205801" to="133666655_1471205259_1604868779_1471205697" />
	<connection from="133666655_1471205259_1604868779_1471205697" to="133666655_1471205259_1604868779_1471205356" />
	<connection from="133666655_1471205259_1604868779_1471205356" to="133666655_1471205259_1604868779_1471205758" />
	<connection from="133666655_1471205259_1604868779_1471205758" to="133666655_1471205259_1604868779_1471205352" />
	<connection from="133666655_1471205259_1604868779_1471205352" to="133666655_1471205259_1604868779_1471205309" />
	<connection from="133666655_1471205259_1604868779_1471205309" to="133666655_1471205259_1604868779_1471205325" />
	<connection from="133666655_1471205259_1604868779_1471205325" to="133666655_1471205259_1604868779_1471205533" />
	<connection from="133666655_1471205259_1604868779_1471205533" to="133666655_1471205259_1604868779_1471205345" />
	<connection from="133666655_1471205259_1604868779_1471205345" to="133666655_1471205259_1604868779_1471205360" />
	<connection from="133666655_1471205259_1604868779_1471205360" to="133666655_1471205259_1604868779_1471205261" />
	<connection from="133666655_1471205259_1604868779_1471205261" to="133666655_1471205259_1604868779_1471205263" />
	<connection from="133666655_1471205259_1604868779_1471205263" to="133666655_1471205259_1604868779_1471205609" />
	<connection from="133666655_1471205259_1604868779_1471205609" to="133666655_1471205259_1604868779_1471205407" />
	<connection from="133666655_1471205259_1604868779_1471205407" to="133666655_1471205259_1604868779_1471205844" />
	<connection from="133666655_1471205259_1604868779_1471205844" to="133666655_1471205259_1604868779_1471205652" />
	<connection from="133666655_1471205259_1604868779_1471205652" to="133666655_1471205259_1604868779_1471205842" />
	<connection from="133666655_1471205259_1604868779_1471205842" to="133666655_1471205259_1604868779_1471205791" />
	<connection from="133666655_1471205259_1604868779_1471205791" to="133666655_1471205259_1604868779_1471205392" />
	<connection from="133666655_1471205259_1604868779_1471205392" to="133666655_1471205259_1604868779_1471205390" />
	<connection from="133666655_1471205259_1604868779_1471205390" to="133666655_1471205259_1604868779_1471205543" />
	<connection from="133666655_1471205259_1604868779_1471205543" to="133666655_1471205259_1604868779_1471205503" />
	<connection from="133666655_1471205259_1604868779_1471205503" to="133666655_1471205259_1604868779_1471205414" />
	<connection from="133666655_1471205259_1604868779_1471205414" to="133666655_1471205259_1604868779_1471205372" />
	<connection from="133666655_1471205259_1604868779_1471205372" to="133666655_1471205259_1604868779_1471205367" />
	<connection from="133666655_1471205259_1604868779_1471205367" to="133666655_1471205259_1604868779_1471205807" />
	<connection from="133666655_1471205259_1604868779_1471205807" to="133666655_1471205259_1604868779_1471205439" />