<?xml version="1.0" encoding="UTF-8"?>

<!-- generated on Mon Nov 25 00:49:44 2019 by Eclipse SUMO netconvert Version 1.2.0
<configuration xmlns:xsi="http://www.w3.org/2001/XMLSchema-instance" xsi:noNamespaceSchemaLocation="http://sumo.dlr.de/xsd/netconvertConfiguration.xsd">

    <input>
        <node-files value="/home/vsimrti/scenarios/ids/sumo/gualtar/gualtar.nod.xml"/>
        <edge-files value="/home/vsimrti/scenarios/ids/sumo/gualtar/gualtar.edg.xml"/>
        <connection-files value="/home/vsimrti/scenarios/ids/sumo/gualtar/gualtar.con.xml"/>
    </input>

    <output>
        <output-file value="/home/vsimrti/scenarios/ids/sumo/gualtar/gualtar.net.xml"/>
    </output>

</configuration>
-->

<net version="1.1" junctionCornerDetail="5" limitTurnSpeed="5.50" xmlns:xsi="http://www.w3.org/2001/XMLSchema-instance" xsi:noNamespaceSchemaLocation="http://sumo.dlr.de/xsd/net_file.xsd">

    <location netOffset="-549746.63,-4598450.36" convBoundary="0.00,0.00,820.95,2192.55" origBoundary="549746.63,4598450.36,550567.58,4600642.90" projParameter="!"/>

    <edge id=":1205623101_0" function="internal">
        <lane id=":1205623101_0_0" index="0" speed="8.33" length="1.13" shape="523.28,1975.28 523.02,1975.08 522.84,1974.93 522.69,1974.76 522.47,1974.51"/>
    </edge>
    <edge id=":1205623101_1" function="internal">
        <lane id=":1205623101_1_0" index="0" speed="8.33" length="0.38" shape="524.94,1972.47 525.01,1972.55 525.06,1972.61 525.12,1972.66 525.21,1972.73"/>
    </edge>
    <edge id=":1205623123_0" function="internal">
        <lane id=":1205623123_0_0" index="0" speed="8.33" length="1.73" shape="606.49,2037.29 606.00,2037.15 605.67,2037.02 605.37,2036.84 604.95,2036.54"/>
    </edge>
    <edge id=":1205623123_1" function="internal">
        <lane id=":1205623123_1_0" index="0" speed="8.33" length="0.58" shape="606.85,2033.96 606.99,2034.06 607.09,2034.12 607.20,2034.17 607.37,2034.21"/>
    </edge>
    <edge id=":1205623151_0" function="internal">
        <lane id=":1205623151_0_0" index="0" speed="6.46" length="9.03" shape="588.73,2024.55 586.55,2023.37 584.52,2023.19 582.66,2024.00 580.96,2025.81"/>
    </edge>
    <edge id=":1205623151_1" function="internal">
        <lane id=":1205623151_1_0" index="0" speed="8.33" length="14.39" shape="588.73,2024.55 577.21,2015.94"/>
    </edge>
    <edge id=":1205623151_2" function="internal">
        <lane id=":1205623151_2_0" index="0" speed="3.65" length="2.34" shape="588.73,2024.55 588.25,2023.19 588.40,2022.31"/>
    </edge>
    <edge id=":1205623151_9" function="internal">
        <lane id=":1205623151_9_0" index="0" speed="3.65" length="2.34" shape="588.40,2022.31 589.20,2021.91 590.64,2021.98"/>
    </edge>
    <edge id=":1205623151_3" function="internal">
        <lane id=":1205623151_3_0" index="0" speed="8.33" length="14.36" shape="579.13,2013.39 590.64,2021.98"/>
    </edge>
    <edge id=":1205623151_4" function="internal">
        <lane id=":1205623151_4_0" index="0" speed="8.10" length="5.83" shape="579.13,2013.39 581.84,2016.12 582.58,2017.96"/>
    </edge>
    <edge id=":1205623151_5" function="internal">
        <lane id=":1205623151_5_0" index="0" speed="3.65" length="2.34" shape="579.13,2013.39 579.61,2014.75 579.45,2015.63"/>
    </edge>
    <edge id=":1205623151_10" function="internal">
        <lane id=":1205623151_10_0" index="0" speed="8.10" length="8.39" shape="582.58,2017.96 583.04,2019.10 582.75,2022.33 580.96,2025.81"/>
    </edge>
    <edge id=":1205623151_11" function="internal">
        <lane id=":1205623151_11_0" index="0" speed="3.65" length="2.34" shape="579.45,2015.63 578.65,2016.03 577.21,2015.94"/>
    </edge>
    <edge id=":1205623151_6" function="internal">
        <lane id=":1205623151_6_0" index="0" speed="6.63" length="9.17" shape="578.34,2023.96 579.50,2021.71 579.70,2019.62 578.94,2017.70 577.21,2015.94"/>
    </edge>
    <edge id=":1205623151_7" function="internal">
        <lane id=":1205623151_7_0" index="0" speed="7.96" length="14.28" shape="578.34,2023.96 581.03,2021.11 583.98,2019.82 587.18,2020.11 590.64,2021.98"/>
    </edge>
    <edge id=":1205623151_8" function="internal">
        <lane id=":1205623151_8_0" index="0" speed="3.65" length="4.67" shape="578.34,2023.96 579.68,2023.44 580.57,2023.58 580.99,2024.37 580.96,2025.81"/>
    </edge>
    <edge id=":1205623163_0" function="internal">
        <lane id=":1205623163_0_0" index="0" speed="8.33" length="1.60" shape="588.47,2090.36 588.02,2090.21 587.72,2090.09 587.44,2089.92 587.06,2089.64"/>
    </edge>
    <edge id=":1205623163_1" function="internal">
        <lane id=":1205623163_1_0" index="0" speed="8.33" length="0.53" shape="588.97,2087.07 589.10,2087.16 589.19,2087.22 589.29,2087.26 589.44,2087.31"/>
    </edge>
    <edge id=":1207489109_0" function="internal">
        <lane id=":1207489109_0_0" index="0" speed="8.33" length="14.39" shape="557.92,2068.02 546.36,2059.46"/>
    </edge>
    <edge id=":1207489109_1" function="internal">
        <lane id=":1207489109_1_0" index="0" speed="8.08" length="5.87" shape="557.92,2068.02 555.19,2065.31 554.42,2063.44"/>
    </edge>
    <edge id=":1207489109_2" function="internal">
        <lane id=":1207489109_2_0" index="0" speed="3.65" length="2.34" shape="557.92,2068.02 557.44,2066.66 557.59,2065.78"/>
    </edge>
    <edge id=":1207489109_9" function="internal">
        <lane id=":1207489109_9_0" index="0" speed="8.08" length="8.35" shape="554.42,2063.44 553.97,2062.33 554.25,2059.11 556.04,2055.63"/>
    </edge>
    <edge id=":1207489109_10" function="internal">
        <lane id=":1207489109_10_0" index="0" speed="3.65" length="2.34" shape="557.59,2065.78 558.39,2065.38 559.83,2065.45"/>
    </edge>
    <edge id=":1207489109_3" function="internal">
        <lane id=":1207489109_3_0" index="0" speed="6.60" length="9.15" shape="558.65,2057.47 557.49,2059.72 557.30,2061.80 558.08,2063.71 559.83,2065.45"/>
    </edge>
    <edge id=":1207489109_4" function="internal">
        <lane id=":1207489109_4_0" index="0" speed="7.96" length="14.28" shape="558.65,2057.47 555.96,2060.32 553.02,2061.61 549.81,2061.32 546.36,2059.46"/>
    </edge>
    <edge id=":1207489109_5" function="internal">
        <lane id=":1207489109_5_0" index="0" speed="3.65" length="4.67" shape="558.65,2057.47 557.31,2057.99 556.42,2057.86 556.00,2057.07 556.04,2055.63"/>
    </edge>
    <edge id=":1207489109_6" function="internal">
        <lane id=":1207489109_6_0" index="0" speed="6.46" length="9.03" shape="548.26,2056.89 550.44,2058.06 552.47,2058.24 554.33,2057.43 556.04,2055.63"/>
    </edge>
    <edge id=":1207489109_7" function="internal">
        <lane id=":1207489109_7_0" index="0" speed="8.33" length="14.40" shape="548.26,2056.89 559.83,2065.45"/>
    </edge>
    <edge id=":1207489109_8" function="internal">
        <lane id=":1207489109_8_0" index="0" speed="3.65" length="2.34" shape="548.26,2056.89 548.75,2058.24 548.60,2059.12"/>
    </edge>
    <edge id=":1207489109_11" function="internal">
        <lane id=":1207489109_11_0" index="0" speed="3.65" length="2.34" shape="548.60,2059.12 547.80,2059.53 546.36,2059.46"/>
    </edge>
    <edge id=":1207489111_0" function="internal">
        <lane id=":1207489111_0_0" index="0" speed="8.33" length="14.91" shape="497.49,1963.17 494.48,1965.28 491.96,1967.99 489.76,1971.04 487.70,1974.19"/>
    </edge>
    <edge id=":1207489111_1" function="internal">
        <lane id=":1207489111_1_0" index="0" speed="8.33" length="16.38" shape="497.49,1963.17 493.85,1964.68 489.78,1965.79 485.62,1966.61 481.69,1967.22"/>
    </edge>
    <edge id=":1207489111_2" function="internal">
        <lane id=":1207489111_2_0" index="0" speed="3.65" length="2.48" shape="497.49,1963.17 496.06,1963.02 495.33,1962.50 495.33,1962.35"/>
    </edge>
    <edge id=":1207489111_9" function="internal">
        <lane id=":1207489111_9_0" index="0" speed="3.65" length="2.19" shape="495.33,1962.35 495.31,1961.60 496.00,1960.34"/>
    </edge>
    <edge id=":1207489111_3" function="internal">
        <lane id=":1207489111_3_0" index="0" speed="8.33" length="15.32" shape="481.21,1964.06 484.99,1963.49 488.80,1962.79 492.52,1961.80 496.00,1960.34"/>
    </edge>
    <edge id=":1207489111_4" function="internal">
        <lane id=":1207489111_4_0" index="0" speed="7.39" length="7.13" shape="481.21,1964.06 487.08,1963.88 488.19,1964.47"/>
    </edge>
    <edge id=":1207489111_5" function="internal">
        <lane id=":1207489111_5_0" index="0" speed="3.65" length="2.34" shape="481.21,1964.06 482.52,1964.67 483.03,1965.41"/>
    </edge>
    <edge id=":1207489111_10" function="internal">
        <lane id=":1207489111_10_0" index="0" speed="7.39" length="11.50" shape="488.19,1964.47 490.11,1965.51 490.32,1968.95 487.70,1974.19"/>
    </edge>
    <edge id=":1207489111_11" function="internal">
        <lane id=":1207489111_11_0" index="0" speed="3.65" length="2.34" shape="483.03,1965.41 482.76,1966.26 481.69,1967.22"/>
    </edge>
    <edge id=":1207489111_6" function="internal">
        <lane id=":1207489111_6_0" index="0" speed="5.50" length="9.58" shape="485.02,1972.44 486.37,1969.74 486.27,1967.97 484.70,1967.13 481.69,1967.22"/>
    </edge>
    <edge id=":1207489111_7" function="internal">
        <lane id=":1207489111_7_0" index="0" speed="8.33" length="16.49" shape="485.02,1972.44 487.27,1969.11 489.88,1965.69 492.81,1962.62 496.00,1960.34"/>
    </edge>
    <edge id=":1207489111_8" function="internal">
        <lane id=":1207489111_8_0" index="0" speed="3.65" length="4.67" shape="485.02,1972.44 486.35,1971.87 487.24,1971.98 487.69,1972.75 487.70,1974.19"/>
    </edge>
    <edge id=":1207489116_0" function="internal">
        <lane id=":1207489116_0_0" index="0" speed="7.92" length="9.72" shape="484.39,1914.63 483.06,1913.21 481.13,1912.36 478.61,1912.06 475.49,1912.32"/>
    </edge>
    <edge id=":1207489116_1" function="internal">
        <lane id=":1207489116_1_0" index="0" speed="8.33" length="13.27" shape="484.39,1914.63 482.66,1911.61 481.26,1908.79 480.01,1905.89 478.73,1902.65"/>
    </edge>
    <edge id=":1207489116_2" function="internal">
        <lane id=":1207489116_2_0" index="0" speed="3.65" length="2.34" shape="484.39,1914.63 484.45,1913.19 484.92,1912.43"/>
    </edge>
    <edge id=":1207489116_9" function="internal">
        <lane id=":1207489116_9_0" index="0" speed="3.65" length="2.34" shape="484.92,1912.43 485.81,1912.35 487.12,1912.95"/>
    </edge>
    <edge id=":1207489116_3" function="internal">
        <lane id=":1207489116_3_0" index="0" speed="8.33" length="12.70" shape="481.71,1901.48 482.95,1904.64 484.12,1907.37 485.43,1910.02 487.12,1912.95"/>
    </edge>
    <edge id=":1207489116_4" function="internal">
        <lane id=":1207489116_4_0" index="0" speed="7.67" length="5.89" shape="481.71,1901.48 482.68,1905.64 482.33,1907.22"/>
    </edge>
    <edge id=":1207489116_5" function="internal">
        <lane id=":1207489116_5_0" index="0" speed="3.65" length="2.34" shape="481.71,1901.48 481.40,1902.89 480.80,1903.56"/>
    </edge>
    <edge id=":1207489116_10" function="internal">
        <lane id=":1207489116_10_0" index="0" speed="7.67" length="9.20" shape="482.33,1907.22 481.97,1908.83 479.57,1911.06 475.49,1912.32"/>
    </edge>
    <edge id=":1207489116_11" function="internal">
        <lane id=":1207489116_11_0" index="0" speed="3.65" length="2.34" shape="480.80,1903.56 479.91,1903.47 478.73,1902.65"/>
    </edge>
    <edge id=":1207489116_6" function="internal">
        <lane id=":1207489116_6_0" index="0" speed="6.09" length="9.06" shape="474.99,1909.16 477.44,1908.40 478.88,1907.07 479.31,1905.15 478.73,1902.65"/>
    </edge>
    <edge id=":1207489116_7" function="internal">
        <lane id=":1207489116_7_0" index="0" speed="8.33" length="13.49" shape="474.99,1909.16 479.10,1908.87 482.49,1909.40 485.16,1910.77 487.12,1912.95"/>
    </edge>
    <edge id=":1207489116_8" function="internal">
        <lane id=":1207489116_8_0" index="0" speed="3.65" length="4.67" shape="474.99,1909.16 476.30,1909.76 476.82,1910.49 476.55,1911.34 475.49,1912.32"/>
    </edge>
    <edge id=":1207489118_0" function="internal">
        <lane id=":1207489118_0_0" index="0" speed="13.89" length="0.82" shape="646.20,1885.69 646.32,1885.65 646.40,1885.62 646.47,1885.58 646.57,1885.52"/>
        <lane id=":1207489118_0_1" index="1" speed="13.89" length="0.82" shape="647.16,1888.74 647.51,1888.63 647.74,1888.54 647.96,1888.42 648.27,1888.23"/>
    </edge>
    <edge id=":1207489135_0" function="internal">
        <lane id=":1207489135_0_0" index="0" speed="8.33" length="14.26" shape="473.43,2005.66 461.82,1997.37"/>
    </edge>
    <edge id=":1207489135_1" function="internal">
        <lane id=":1207489135_1_0" index="0" speed="8.16" length="5.70" shape="473.43,2005.66 470.72,2002.99 469.99,2001.24"/>
    </edge>
    <edge id=":1207489135_2" function="internal">
        <lane id=":1207489135_2_0" index="0" speed="3.65" length="2.34" shape="473.43,2005.66 472.94,2004.31 473.09,2003.43"/>
    </edge>
    <edge id=":1207489135_9" function="internal">
        <lane id=":1207489135_9_0" index="0" speed="8.16" length="8.49" shape="469.99,2001.24 469.48,2000.02 469.70,1996.77 471.38,1993.24"/>
    </edge>
    <edge id=":1207489135_10" function="internal">
        <lane id=":1207489135_10_0" index="0" speed="3.65" length="2.34" shape="473.09,2003.43 473.89,2003.02 475.33,2003.09"/>
    </edge>
    <edge id=":1207489135_3" function="internal">
        <lane id=":1207489135_3_0" index="0" speed="6.70" length="9.24" shape="474.05,1994.99 472.95,1997.31 472.79,1999.43 473.58,2001.36 475.33,2003.09"/>
    </edge>
    <edge id=":1207489135_4" function="internal">
        <lane id=":1207489135_4_0" index="0" speed="7.96" length="14.29" shape="474.05,1994.99 471.45,1997.94 468.55,1999.32 465.34,1999.13 461.82,1997.37"/>
    </edge>
    <edge id=":1207489135_5" function="internal">
        <lane id=":1207489135_5_0" index="0" speed="3.65" length="4.67" shape="474.05,1994.99 472.73,1995.56 471.84,1995.45 471.39,1994.68 471.38,1993.24"/>
    </edge>
    <edge id=":1207489135_6" function="internal">
        <lane id=":1207489135_6_0" index="0" speed="6.45" length="9.03" shape="463.65,1994.74 465.87,1995.85 467.90,1995.97 469.73,1995.10 471.38,1993.24"/>
    </edge>
    <edge id=":1207489135_7" function="internal">
        <lane id=":1207489135_7_0" index="0" speed="8.33" length="14.36" shape="463.65,1994.74 475.33,2003.09"/>
    </edge>
    <edge id=":1207489135_8" function="internal">
        <lane id=":1207489135_8_0" index="0" speed="3.65" length="2.34" shape="463.65,1994.74 464.18,1996.08 464.05,1996.97"/>
    </edge>
    <edge id=":1207489135_11" function="internal">
        <lane id=":1207489135_11_0" index="0" speed="3.65" length="2.34" shape="464.05,1996.97 463.26,1997.40 461.82,1997.37"/>
    </edge>
    <edge id=":1207489137_0" function="internal">
        <lane id=":1207489137_0_0" index="0" speed="6.11" length="9.96" shape="361.47,1933.61 360.43,1930.92 360.65,1928.84 362.15,1927.38 364.91,1926.53"/>
    </edge>
    <edge id=":1207489137_1" function="internal">
        <lane id=":1207489137_1_0" index="0" speed="3.92" length="3.32" shape="365.41,1929.69 364.49,1929.98 363.99,1930.46 363.91,1931.16 364.26,1932.05"/>
    </edge>
    <edge id=":1207489141_0" function="internal">
        <lane id=":1207489141_0_0" index="0" speed="7.99" length="2.29" shape="395.12,1979.87 394.45,1979.95 393.98,1979.96 393.52,1979.86 392.88,1979.65"/>
    </edge>
    <edge id=":1207489141_1" function="internal">
        <lane id=":1207489141_1_0" index="0" speed="8.33" length="0.76" shape="393.92,1976.63 394.14,1976.70 394.29,1976.73 394.45,1976.73 394.67,1976.70"/>
    </edge>
    <edge id=":1229115232_0" function="internal">
        <lane id=":1229115232_0_0" index="0" speed="8.33" length="0.41" shape="742.88,1970.70 742.87,1970.29"/>
    </edge>
    <edge id=":1229115232_1" function="internal">
        <lane id=":1229115232_1_0" index="0" speed="8.33" length="0.14" shape="746.07,1970.35 746.07,1970.49"/>
    </edge>
    <edge id=":1366649895_0" function="internal">
        <lane id=":1366649895_0_0" index="0" speed="5.56" length="0.29" shape="705.92,1842.46 705.95,1842.74"/>
    </edge>
    <edge id=":1366649896_0" function="internal">
        <lane id=":1366649896_0_0" index="0" speed="6.45" length="6.65" shape="697.22,1871.52 702.89,1874.99"/>
    </edge>
    <edge id=":1366649896_1" function="internal">
        <lane id=":1366649896_1_0" index="0" speed="13.89" length="8.31" shape="698.67,1867.57 700.20,1869.58 701.05,1871.10 701.77,1872.70 702.89,1874.99"/>
        <lane id=":1366649896_1_1" index="1" speed="13.89" length="8.31" shape="696.20,1869.61 697.63,1871.50 698.41,1872.93 699.07,1874.44 700.11,1876.59"/>
    </edge>
    <edge id=":1366649896_3" function="internal">
        <lane id=":1366649896_3_0" index="0" speed="3.13" length="1.41" shape="696.20,1869.61 694.81,1869.42"/>
    </edge>
    <edge id=":1366649897_0" function="internal">
        <lane id=":1366649897_0_0" index="0" speed="5.56" length="0.65" shape="702.50,1813.99 702.60,1814.15 702.65,1814.28 702.68,1814.41 702.70,1814.60"/>
    </edge>
    <edge id=":1366649898_0" function="internal">
        <lane id=":1366649898_0_0" index="0" speed="4.52" length="3.73" shape="690.59,1806.38 687.89,1808.97"/>
    </edge>
    <edge id=":1366649898_1" function="internal">
        <lane id=":1366649898_1_0" index="0" speed="13.89" length="7.76" shape="690.59,1806.38 691.27,1814.11"/>
        <lane id=":1366649898_1_1" index="1" speed="13.89" length="7.76" shape="687.40,1806.66 688.09,1814.39"/>
    </edge>
    <edge id=":1366649899_0" function="internal">
        <lane id=":1366649899_0_0" index="0" speed="8.33" length="0.16" shape="731.49,1858.98 731.44,1858.97 731.41,1858.96 731.38,1858.96 731.33,1858.95"/>
    </edge>
    <edge id=":1366649899_1" function="internal">
        <lane id=":1366649899_1_0" index="0" speed="8.33" length="0.47" shape="731.87,1855.79 732.01,1855.82 732.10,1855.84 732.19,1855.86 732.33,1855.90"/>
    </edge>
    <edge id=":1366649900_0" function="internal">
        <lane id=":1366649900_0_0" index="0" speed="8.33" length="0.33" shape="763.55,1879.50 763.51,1879.41 763.49,1879.35 763.45,1879.29 763.40,1879.21"/>
    </edge>
    <edge id=":1366649900_1" function="internal">
        <lane id=":1366649900_1_0" index="0" speed="8.33" length="0.99" shape="766.05,1877.43 766.22,1877.67 766.32,1877.84 766.40,1878.03 766.52,1878.30"/>
    </edge>
    <edge id=":1366649901_0" function="internal">
        <lane id=":1366649901_0_0" index="0" speed="8.33" length="0.22" shape="714.66,1858.91 714.60,1858.92 714.56,1858.93 714.51,1858.94 714.45,1858.96"/>
    </edge>
    <edge id=":1366649901_1" function="internal">
        <lane id=":1366649901_1_0" index="0" speed="8.33" length="0.65" shape="713.55,1855.89 713.74,1855.84 713.86,1855.80 713.99,1855.78 714.18,1855.75"/>
    </edge>
    <edge id=":1366649902_0" function="internal">
        <lane id=":1366649902_0_0" index="0" speed="8.33" length="0.57" shape="747.29,1863.39 747.15,1863.29 747.05,1863.23 746.94,1863.19 746.78,1863.15"/>
    </edge>
    <edge id=":1366649902_1" function="internal">
        <lane id=":1366649902_1_0" index="0" speed="8.33" length="1.71" shape="747.62,1860.06 748.11,1860.20 748.43,1860.32 748.74,1860.49 749.15,1860.78"/>
    </edge>
    <edge id=":1366649903_0" function="internal">
        <lane id=":1366649903_0_0" index="0" speed="5.56" length="3.67" shape="707.40,1853.66 707.45,1854.73 707.31,1855.46 707.06,1856.19 706.78,1857.24"/>
    </edge>
    <edge id=":1366649904_0" function="internal">
        <lane id=":1366649904_0_0" index="0" speed="3.65" length="4.67" shape="782.52,1917.73 782.23,1919.14 781.64,1919.81 780.75,1919.74 779.55,1918.93"/>
    </edge>
    <edge id=":1366649905_0" function="internal">
        <lane id=":1366649905_0_0" index="0" speed="8.33" length="10.69" shape="713.92,1859.12 710.83,1859.78 708.49,1860.15 706.47,1861.00 704.34,1863.08"/>
    </edge>
    <edge id=":1366649905_1" function="internal">
        <lane id=":1366649905_1_0" index="0" speed="3.65" length="2.34" shape="713.92,1859.12 712.54,1858.69 711.93,1858.03"/>
    </edge>
    <edge id=":1366649905_6" function="internal">
        <lane id=":1366649905_6_0" index="0" speed="3.65" length="2.34" shape="711.93,1858.03 712.09,1857.15 713.01,1856.05"/>
    </edge>
    <edge id=":1366649905_2" function="internal">
        <lane id=":1366649905_2_0" index="0" speed="4.95" length="6.55" shape="706.74,1857.44 707.51,1857.68 709.45,1857.22 711.60,1856.52 713.01,1856.05"/>
    </edge>
    <edge id=":1366649905_3" function="internal">
        <lane id=":1366649905_3_0" index="0" speed="6.95" length="6.23" shape="706.74,1857.44 706.39,1859.25 706.03,1860.48 705.43,1861.60 704.34,1863.08"/>
    </edge>
    <edge id=":1366649905_4" function="internal">
        <lane id=":1366649905_4_0" index="0" speed="8.33" length="12.60" shape="701.79,1861.15 704.17,1858.89 706.76,1857.65 709.67,1856.89 713.01,1856.05"/>
    </edge>
    <edge id=":1366649905_5" function="internal">
        <lane id=":1366649905_5_0" index="0" speed="3.65" length="2.56" shape="701.79,1861.15 703.16,1860.67 704.04,1860.84 704.14,1861.04"/>
    </edge>
    <edge id=":1366649905_7" function="internal">
        <lane id=":1366649905_7_0" index="0" speed="3.65" length="2.11" shape="704.14,1861.04 704.43,1861.64 704.34,1863.08"/>
    </edge>
    <edge id=":1366649906_0" function="internal">
        <lane id=":1366649906_0_0" index="0" speed="4.03" length="1.63" shape="698.79,1809.04 699.20,1809.10 699.56,1809.25 699.87,1809.50 700.12,1809.84"/>
    </edge>
    <edge id=":1471205229_0" function="internal">
        <lane id=":1471205229_0_0" index="0" speed="8.33" length="0.10" shape="381.65,1047.66 381.60,1047.58"/>
    </edge>
    <edge id=":1471205229_1" function="internal">
        <lane id=":1471205229_1_0" index="0" speed="8.33" length="0.10" shape="384.30,1045.87 384.25,1045.79"/>
    </edge>
    <edge id=":1471205233_0" function="internal">
        <lane id=":1471205233_0_0" index="0" speed="8.33" length="0.49" shape="356.19,1007.64 356.11,1007.52 356.06,1007.43 356.02,1007.35 355.95,1007.22"/>
    </edge>
    <edge id=":1471205233_1" function="internal">
        <lane id=":1471205233_1_0" index="0" speed="8.33" length="0.16" shape="358.81,1005.78 358.83,1005.82 358.85,1005.85 358.87,1005.88 358.89,1005.92"/>
    </edge>
    <edge id=":1471205236_0" function="internal">
        <lane id=":1471205236_0_0" index="0" speed="8.33" length="0.14" shape="338.10,929.00 338.09,928.86"/>
    </edge>
    <edge id=":1471205236_1" function="internal">
        <lane id=":1471205236_1_0" index="0" speed="8.33" length="0.28" shape="341.28,928.61 341.30,928.88"/>
    </edge>
    <edge id=":1471205237_0" function="internal">
        <lane id=":1471205237_0_0" index="0" speed="8.33" length="1.60" shape="336.60,976.85 336.39,976.43 336.26,976.12 336.19,975.81 336.12,975.34"/>
    </edge>
    <edge id=":1471205237_1" function="internal">
        <lane id=":1471205237_1_0" index="0" speed="8.33" length="0.53" shape="339.29,974.88 339.31,975.04 339.33,975.15 339.37,975.25 339.45,975.39"/>
    </edge>
    <edge id=":1471205238_0" function="internal">
        <lane id=":1471205238_0_0" index="0" speed="8.33" length="1.01" shape="342.62,988.34 342.43,988.10 342.31,987.94 342.21,987.76 342.07,987.50"/>
    </edge>
    <edge id=":1471205238_1" function="internal">
        <lane id=":1471205238_1_0" index="0" speed="8.33" length="0.34" shape="344.91,986.03 344.96,986.12 344.99,986.18 345.03,986.24 345.10,986.31"/>
    </edge>
    <edge id=":1471205244_0" function="internal">
        <lane id=":1471205244_0_0" index="0" speed="8.33" length="0.18" shape="340.00,851.70 339.99,851.75 339.98,851.79 339.98,851.83 339.98,851.88"/>
    </edge>
    <edge id=":1471205244_1" function="internal">
        <lane id=":1471205244_1_0" index="0" speed="8.33" length="0.54" shape="336.78,851.70 336.79,851.54 336.80,851.43 336.82,851.32 336.84,851.16"/>
    </edge>
    <edge id=":1471205259_0" function="internal">
        <lane id=":1471205259_0_0" index="0" speed="8.33" length="0.38" shape="675.42,1851.96 675.43,1852.35"/>
    </edge>
    <edge id=":1471205259_1" function="internal">
        <lane id=":1471205259_1_0" index="0" speed="8.33" length="0.13" shape="672.23,1852.23 672.23,1852.11"/>
    </edge>
    <edge id=":1471205260_0" function="internal">
        <lane id=":1471205260_0_0" index="0" speed="8.33" length="0.94" shape="493.55,1219.35 493.38,1219.14 493.27,1218.98 493.18,1218.82 493.05,1218.57"/>
    </edge>
    <edge id=":1471205260_1" function="internal">
        <lane id=":1471205260_1_0" index="0" speed="8.33" length="0.31" shape="495.89,1217.11 495.94,1217.19 495.97,1217.24 496.01,1217.30 496.06,1217.37"/>
    </edge>
    <edge id=":1471205261_0" function="internal">
        <lane id=":1471205261_0_0" index="0" speed="8.33" length="2.10" shape="386.82,448.62 386.57,448.05 386.45,447.64 386.41,447.21 386.41,446.59"/>
    </edge>
    <edge id=":1471205261_1" function="internal">
        <lane id=":1471205261_1_0" index="0" speed="8.33" length="0.70" shape="389.61,446.65 389.61,446.86 389.62,447.00 389.66,447.14 389.74,447.33"/>
    </edge>
    <edge id=":1471205263_0" function="internal">
        <lane id=":1471205263_0_0" index="0" speed="8.33" length="0.92" shape="390.04,436.95 389.90,437.18 389.82,437.35 389.79,437.53 389.78,437.81"/>
    </edge>
    <edge id=":1471205263_1" function="internal">
        <lane id=":1471205263_1_0" index="0" speed="7.33" length="2.76" shape="386.58,437.75 386.61,436.93 386.71,436.37 386.94,435.86 387.38,435.17"/>
    </edge>
    <edge id=":1471205271_0" function="internal">
        <lane id=":1471205271_0_0" index="0" speed="8.33" length="0.19" shape="463.03,1160.93 462.92,1160.77"/>
    </edge>
    <edge id=":1471205271_1" function="internal">
        <lane id=":1471205271_1_0" index="0" speed="8.33" length="0.30" shape="465.52,1158.91 465.69,1159.15"/>
    </edge>
    <edge id=":1471205274_0" function="internal">
        <lane id=":1471205274_0_0" index="0" speed="8.33" length="1.27" shape="352.06,683.13 351.81,682.85 351.65,682.65 351.51,682.43 351.34,682.09"/>
    </edge>
    <edge id=":1471205274_1" function="internal">
        <lane id=":1471205274_1_0" index="0" speed="8.33" length="0.42" shape="354.19,680.63 354.25,680.74 354.29,680.82 354.34,680.88 354.43,680.98"/>
    </edge>
    <edge id=":1471205277_0" function="internal">
        <lane id=":1471205277_0_0" index="0" speed="8.33" length="0.29" shape="117.91,83.24 117.66,83.09"/>
    </edge>
    <edge id=":1471205277_1" function="internal">
        <lane id=":1471205277_1_0" index="0" speed="8.33" length="0.31" shape="119.28,80.33 119.54,80.48"/>
    </edge>
    <edge id=":1471205281_0" function="internal">
        <lane id=":1471205281_0_0" index="0" speed="8.33" length="0.17" shape="487.52,1207.82 487.50,1207.78 487.48,1207.75 487.47,1207.72 487.44,1207.68"/>
    </edge>
    <edge id=":1471205281_1" function="internal">
        <lane id=":1471205281_1_0" index="0" speed="8.33" length="0.50" shape="490.12,1205.93 490.20,1206.05 490.25,1206.14 490.30,1206.23 490.37,1206.36"/>
    </edge>
    <edge id=":1471205282_0" function="internal">
        <lane id=":1471205282_0_0" index="0" speed="8.33" length="0.86" shape="500.86,1228.47 500.67,1228.30 500.55,1228.18 500.43,1228.05 500.28,1227.85"/>
    </edge>
    <edge id=":1471205282_1" function="internal">
        <lane id=":1471205282_1_0" index="0" speed="8.33" length="0.29" shape="502.79,1225.86 502.84,1225.93 502.88,1225.97 502.92,1226.01 502.98,1226.07"/>
    </edge>
    <edge id=":1471205290_0" function="internal">
        <lane id=":1471205290_0_0" index="0" speed="8.33" length="0.35" shape="518.00,1187.03 517.93,1186.95 517.89,1186.90 517.84,1186.85 517.76,1186.78"/>
    </edge>
    <edge id=":1471205290_1" function="internal">
        <lane id=":1471205290_1_0" index="0" speed="8.33" length="1.04" shape="519.83,1184.35 520.07,1184.55 520.22,1184.69 520.36,1184.86 520.55,1185.10"/>
    </edge>
    <edge id=":1471205297_0" function="internal">
        <lane id=":1471205297_0_0" index="0" speed="8.33" length="1.40" shape="44.24,49.92 43.83,49.92 43.54,49.90 43.26,49.85 42.86,49.74"/>
    </edge>
    <edge id=":1471205297_1" function="internal">
        <lane id=":1471205297_1_0" index="0" speed="8.33" length="0.47" shape="43.72,46.66 43.85,46.69 43.95,46.71 44.04,46.72 44.18,46.72"/>
    </edge>
    <edge id=":1471205304_0" function="internal">
        <lane id=":1471205304_0_0" index="0" speed="8.33" length="0.36" shape="472.29,1139.27 472.06,1138.99"/>
    </edge>
    <edge id=":1471205304_1" function="internal">
        <lane id=":1471205304_1_0" index="0" speed="8.33" length="0.12" shape="474.65,1137.10 474.72,1137.20"/>
    </edge>
    <edge id=":1471205309_0" function="internal">
        <lane id=":1471205309_0_0" index="0" speed="8.33" length="0.42" shape="401.42,499.12 401.41,499.25 401.40,499.33 401.39,499.42 401.37,499.54"/>
    </edge>
    <edge id=":1471205309_1" function="internal">
        <lane id=":1471205309_1_0" index="0" speed="8.33" length="0.14" shape="398.21,498.99 398.22,498.95 398.22,498.92 398.23,498.90 398.23,498.85"/>
    </edge>
    <edge id=":1471205313_0" function="internal">
        <lane id=":1471205313_0_0" index="0" speed="4.25" length="1.24" shape="9.95,2.35 9.59,2.41 9.35,2.50 9.15,2.66 8.91,2.94"/>
    </edge>
    <edge id=":1471205313_1" function="internal">
        <lane id=":1471205313_1_0" index="0" speed="6.73" length="3.73" shape="6.41,0.94 7.12,0.11 7.72,-0.37 8.45,-0.64 9.52,-0.82"/>
    </edge>
    <edge id=":1471205317_0" function="internal">
        <lane id=":1471205317_0_0" index="0" speed="8.33" length="0.65" shape="334.80,887.52 334.78,887.33 334.78,887.20 334.78,887.06 334.79,886.87"/>
    </edge>