<?xml version="1.0" encoding="UTF-8"?>

<!-- generated on Tue Dec  3 14:57:27 2019 by Eclipse SUMO netconvert Version 1.2.0
<configuration xmlns:xsi="http://www.w3.org/2001/XMLSchema-instance" xsi:noNamespaceSchemaLocation="http://sumo.dlr.de/xsd/netconvertConfiguration.xsd">

    <input>
        <node-files value="/home/vsimrti/scenarios/ids/sumo/gualtar5/gualtar5.nod.xml"/>
        <edge-files value="/home/vsimrti/scenarios/ids/sumo/gualtar5/gualtar5.edg.xml"/>
        <connection-files value="/home/vsimrti/scenarios/ids/sumo/gualtar5/gualtar5.con.xml"/>
    </input>

    <output>
        <output-file value="/home/vsimrti/scenarios/ids/sumo/gualtar5/gualtar5.net.xml"/>
    </output>

</configuration>
-->

<net version="1.1" junctionCornerDetail="5" limitTurnSpeed="5.50" xmlns:xsi="http://www.w3.org/2001/XMLSchema-instance" xsi:noNamespaceSchemaLocation="http://sumo.dlr.de/xsd/net_file.xsd">

    <location netOffset="-552639.18,-4602307.82" convBoundary="0.00,0.00,1807.37,788.76" origBoundary="552639.18,4602307.82,554446.55,4603096.58" projParameter="!"/>

    <edge id=":1214670138_0" function="internal">
        <lane id=":1214670138_0_0" index="0" speed="8.45" length="11.27" shape="181.51,290.73 179.12,291.20 177.01,292.55 175.20,294.78 173.67,297.88"/>
    </edge>
    <edge id=":1214670138_1" function="internal">
        <lane id=":1214670138_1_0" index="0" speed="13.89" length="14.72" shape="181.51,290.73 166.79,290.81"/>
    </edge>
    <edge id=":1214670138_2" function="internal">
        <lane id=":1214670138_2_0" index="0" speed="3.65" length="2.34" shape="181.51,290.73 180.30,289.95 179.89,289.15"/>
    </edge>
    <edge id=":1214670138_9" function="internal">
        <lane id=":1214670138_9_0" index="0" speed="3.65" length="2.34" shape="179.89,289.15 180.28,288.35 181.47,287.53"/>
    </edge>
    <edge id=":1214670138_3" function="internal">
        <lane id=":1214670138_3_0" index="0" speed="13.89" length="14.68" shape="166.79,287.61 181.47,287.53"/>
    </edge>
    <edge id=":1214670138_4" function="internal">
        <lane id=":1214670138_4_0" index="0" speed="7.48" length="6.14" shape="166.79,287.61 171.30,288.25 172.58,289.18"/>
    </edge>
    <edge id=":1214670138_5" function="internal">
        <lane id=":1214670138_5_0" index="0" speed="3.65" length="2.34" shape="166.79,287.61 167.99,288.41 168.39,289.21"/>
    </edge>
    <edge id=":1214670138_10" function="internal">
        <lane id=":1214670138_10_0" index="0" speed="7.48" length="9.62" shape="172.58,289.18 173.95,290.18 174.74,293.39 173.67,297.88"/>
    </edge>
    <edge id=":1214670138_11" function="internal">
        <lane id=":1214670138_11_0" index="0" speed="3.65" length="2.34" shape="168.39,289.21 167.99,290.01 166.79,290.81"/>
    </edge>
    <edge id=":1214670138_6" function="internal">
        <lane id=":1214670138_6_0" index="0" speed="5.82" length="9.02" shape="170.69,296.72 171.31,294.13 170.87,292.29 169.36,291.18 166.79,290.81"/>
    </edge>
    <edge id=":1214670138_7" function="internal">
        <lane id=":1214670138_7_0" index="0" speed="9.70" length="15.08" shape="170.69,296.72 172.69,292.73 175.16,289.87 178.08,288.14 181.47,287.53"/>
    </edge>
    <edge id=":1214670138_8" function="internal">
        <lane id=":1214670138_8_0" index="0" speed="3.65" length="4.67" shape="170.69,296.72 171.87,295.89 172.76,295.81 173.36,296.47 173.67,297.88"/>
    </edge>
    <edge id=":1214670166_0" function="internal">
        <lane id=":1214670166_0_0" index="0" speed="6.08" length="9.07" shape="144.42,484.12 142.03,483.18 140.08,483.33 138.56,484.57 137.47,486.90"/>
    </edge>
    <edge id=":1214670166_1" function="internal">
        <lane id=":1214670166_1_0" index="0" speed="8.33" length="14.50" shape="144.42,484.12 141.03,481.70 138.77,478.93 137.64,475.82 137.66,472.38"/>
    </edge>
    <edge id=":1214670166_2" function="internal">
        <lane id=":1214670166_2_0" index="0" speed="3.65" length="4.67" shape="144.42,484.12 143.78,482.83 143.82,481.94 144.57,481.44 146.01,481.34"/>
    </edge>
    <edge id=":1214670166_3" function="internal">
        <lane id=":1214670166_3_0" index="0" speed="8.10" length="10.60" shape="140.82,472.88 140.84,475.30 141.71,477.52 143.43,479.53 146.01,481.34"/>
    </edge>
    <edge id=":1214670166_4" function="internal">
        <lane id=":1214670166_4_0" index="0" speed="8.33" length="14.42" shape="140.82,472.88 140.16,476.48 139.39,479.95 138.49,483.39 137.47,486.90"/>
    </edge>
    <edge id=":1214670166_5" function="internal">
        <lane id=":1214670166_5_0" index="0" speed="3.65" length="2.34" shape="140.82,472.88 139.84,473.94 138.98,474.21"/>
    </edge>
    <edge id=":1214670166_9" function="internal">
        <lane id=":1214670166_9_0" index="0" speed="3.65" length="2.34" shape="138.98,474.21 138.26,473.69 137.66,472.38"/>
    </edge>
    <edge id=":1214670166_6" function="internal">
        <lane id=":1214670166_6_0" index="0" speed="8.33" length="14.00" shape="134.41,485.98 135.41,482.53 136.28,479.23 137.02,475.91 137.66,472.38"/>
    </edge>
    <edge id=":1214670166_7" function="internal">
        <lane id=":1214670166_7_0" index="0" speed="7.66" length="5.86" shape="134.41,485.98 136.22,482.09 137.43,481.10"/>
    </edge>
    <edge id=":1214670166_8" function="internal">
        <lane id=":1214670166_8_0" index="0" speed="3.65" length="2.34" shape="134.41,485.98 135.52,485.06 136.40,484.91"/>
    </edge>
    <edge id=":1214670166_10" function="internal">
        <lane id=":1214670166_10_0" index="0" speed="7.66" length="9.26" shape="137.43,481.10 138.75,480.02 142.02,479.77 146.01,481.34"/>
    </edge>
    <edge id=":1214670166_11" function="internal">
        <lane id=":1214670166_11_0" index="0" speed="3.65" length="2.34" shape="136.40,484.91 137.05,485.52 137.47,486.90"/>
    </edge>
    <edge id=":1214670175_0" function="internal">
        <lane id=":1214670175_0_0" index="0" speed="8.33" length="0.66" shape="156.05,377.87 156.05,378.06 156.04,378.20 156.02,378.33 155.99,378.53"/>
    </edge>
    <edge id=":1214670175_1" function="internal">
        <lane id=":1214670175_1_0" index="0" speed="8.33" length="0.22" shape="152.83,378.02 152.84,377.95 152.85,377.91 152.85,377.87 152.85,377.80"/>
    </edge>
    <edge id=":1214670177_0" function="internal">
        <lane id=":1214670177_0_0" index="0" speed="8.33" length="0.26" shape="156.84,341.98 156.83,342.06 156.82,342.11 156.82,342.16 156.81,342.24"/>
    </edge>
    <edge id=":1214670177_1" function="internal">
        <lane id=":1214670177_1_0" index="0" speed="8.33" length="0.78" shape="153.61,342.17 153.62,341.94 153.63,341.78 153.65,341.62 153.69,341.40"/>
    </edge>
    <edge id=":1214670180_0" function="internal">
        <lane id=":1214670180_0_0" index="0" speed="8.33" length="0.45" shape="159.69,326.91 159.63,327.03 159.60,327.11 159.58,327.20 159.55,327.33"/>
    </edge>
    <edge id=":1214670180_1" function="internal">
        <lane id=":1214670180_1_0" index="0" speed="8.33" length="1.35" shape="156.40,326.75 156.48,326.36 156.55,326.09 156.65,325.84 156.83,325.48"/>
    </edge>
    <edge id=":1214677760_0" function="internal">
        <lane id=":1214677760_0_0" index="0" speed="8.33" length="0.70" shape="293.31,598.60 293.24,598.41 293.18,598.28 293.10,598.16 292.96,598.01"/>
    </edge>
    <edge id=":1214677760_1" function="internal">
        <lane id=":1214677760_1_0" index="0" speed="8.33" length="2.09" shape="295.32,595.84 295.73,596.30 295.98,596.65 296.16,597.04 296.35,597.62"/>
    </edge>
    <edge id=":1214677762_0" function="internal">
        <lane id=":1214677762_0_0" index="0" speed="3.65" length="4.67" shape="294.26,774.17 293.35,775.29 292.52,775.61 291.76,775.14 291.07,773.87"/>
    </edge>
    <edge id=":1214677763_0" function="internal">
        <lane id=":1214677763_0_0" index="0" speed="8.33" length="0.46" shape="295.71,606.29 295.71,606.15 295.70,606.06 295.67,605.97 295.63,605.84"/>
    </edge>
    <edge id=":1214677763_1" function="internal">
        <lane id=":1214677763_1_0" index="0" speed="8.33" length="1.37" shape="298.68,604.86 298.80,605.25 298.87,605.52 298.90,605.80 298.91,606.21"/>
    </edge>
    <edge id=":1214677766_0" function="internal">
        <lane id=":1214677766_0_0" index="0" speed="8.33" length="0.57" shape="301.31,698.71 301.31,698.89 301.31,699.00 301.30,699.12 301.29,699.29"/>
    </edge>
    <edge id=":1214677766_1" function="internal">
        <lane id=":1214677766_1_0" index="0" speed="8.33" length="0.19" shape="298.10,698.99 298.11,698.93 298.11,698.89 298.11,698.85 298.11,698.80"/>
    </edge>
    <edge id=":1214711933_0" function="internal">
        <lane id=":1214711933_0_0" index="0" speed="8.33" length="0.97" shape="54.50,438.66 54.42,438.93 54.36,439.12 54.28,439.30 54.15,439.56"/>
    </edge>
    <edge id=":1214711933_1" function="internal">
        <lane id=":1214711933_1_0" index="0" speed="8.33" length="0.32" shape="51.30,438.10 51.34,438.02 51.37,437.96 51.39,437.90 51.42,437.80"/>
    </edge>
    <edge id=":1214711934_0" function="internal">
        <lane id=":1214711934_0_0" index="0" speed="4.44" length="1.02" shape="80.64,553.91 80.38,554.06 80.22,554.19 80.10,554.36 79.97,554.63"/>
    </edge>
    <edge id=":1214711934_1" function="internal">
        <lane id=":1214711934_1_0" index="0" speed="7.09" length="3.05" shape="77.07,553.28 77.46,552.48 77.82,551.96 78.31,551.56 79.08,551.11"/>
    </edge>
    <edge id=":1214711935_0" function="internal">
        <lane id=":1214711935_0_0" index="0" speed="3.65" length="4.67" shape="27.36,646.07 25.92,646.18 25.11,645.80 24.93,644.93 25.38,643.56"/>
    </edge>
    <edge id=":1214711939_0" function="internal">
        <lane id=":1214711939_0_0" index="0" speed="8.33" length="0.33" shape="51.15,604.94 51.09,605.03 51.06,605.08 51.03,605.15 51.00,605.24"/>
    </edge>
    <edge id=":1214711939_1" function="internal">
        <lane id=":1214711939_1_0" index="0" speed="8.33" length="0.99" shape="48.01,604.08 48.12,603.80 48.20,603.62 48.30,603.45 48.46,603.20"/>
    </edge>
    <edge id=":1214711940_0" function="internal">
        <lane id=":1214711940_0_0" index="0" speed="7.85" length="2.37" shape="116.10,537.64 115.63,538.16 115.26,538.48 114.84,538.71 114.19,538.96"/>
    </edge>
    <edge id=":1214711940_1" function="internal">
        <lane id=":1214711940_1_0" index="0" speed="8.33" length="0.79" shape="113.06,535.97 113.27,535.89 113.42,535.81 113.54,535.70 113.69,535.53"/>
    </edge>
    <edge id=":1214711942_0" function="internal">
        <lane id=":1214711942_0_0" index="0" speed="7.52" length="2.59" shape="39.01,636.08 38.72,636.79 38.46,637.25 38.09,637.64 37.50,638.12"/>
    </edge>
    <edge id=":1214711942_1" function="internal">
        <lane id=":1214711942_1_0" index="0" speed="8.33" length="0.86" shape="35.52,635.61 35.72,635.44 35.84,635.32 35.93,635.16 36.03,634.93"/>
    </edge>
    <edge id=":1214711943_0" function="internal">
        <lane id=":1214711943_0_0" index="0" speed="8.33" length="0.95" shape="48.50,450.65 48.37,450.91 48.28,451.07 48.17,451.23 47.99,451.45"/>
    </edge>
    <edge id=":1214711943_1" function="internal">
        <lane id=":1214711943_1_0" index="0" speed="8.33" length="0.32" shape="45.48,449.47 45.54,449.40 45.58,449.34 45.61,449.29 45.65,449.20"/>
    </edge>
    <edge id=":1214711947_0" function="internal">
        <lane id=":1214711947_0_0" index="0" speed="8.33" length="1.81" shape="66.76,393.01 66.81,393.55 66.81,393.92 66.75,394.28 66.61,394.80"/>
    </edge>
    <edge id=":1214711947_1" function="internal">
        <lane id=":1214711947_1_0" index="0" speed="8.33" length="0.60" shape="63.53,393.95 63.57,393.78 63.59,393.66 63.59,393.53 63.57,393.35"/>
    </edge>
    <edge id=":1214711948_0" function="internal">
        <lane id=":1214711948_0_0" index="0" speed="8.33" length="2.06" shape="125.66,526.08 125.48,526.66 125.31,527.05 125.07,527.40 124.67,527.86"/>
    </edge>
    <edge id=":1214711948_1" function="internal">
        <lane id=":1214711948_1_0" index="0" speed="8.33" length="0.69" shape="122.27,525.75 122.40,525.60 122.48,525.48 122.54,525.35 122.60,525.16"/>
    </edge>
    <edge id=":1214711950_0" function="internal">
        <lane id=":1214711950_0_0" index="0" speed="3.65" length="4.67" shape="1.53,597.19 0.41,598.10 -0.48,598.24 -1.12,597.62 -1.53,596.24"/>
    </edge>
    <edge id=":1214711952_0" function="internal">
        <lane id=":1214711952_0_0" index="0" speed="8.33" length="2.10" shape="16.03,549.35 16.10,549.97 16.11,550.40 16.03,550.82 15.85,551.42"/>
    </edge>
    <edge id=":1214711952_1" function="internal">
        <lane id=":1214711952_1_0" index="0" speed="8.33" length="0.70" shape="12.80,550.46 12.86,550.26 12.88,550.12 12.88,549.98 12.86,549.78"/>
    </edge>
    <edge id=":1214711953_0" function="internal">
        <lane id=":1214711953_0_0" index="0" speed="8.33" length="0.83" shape="14.04,494.45 13.89,494.64 13.81,494.79 13.76,494.95 13.71,495.19"/>
    </edge>
    <edge id=":1214711953_1" function="internal">
        <lane id=":1214711953_1_0" index="0" speed="7.67" length="2.48" shape="10.55,494.69 10.68,493.97 10.83,493.49 11.08,493.05 11.53,492.47"/>
    </edge>
    <edge id=":1214711956_0" function="internal">
        <lane id=":1214711956_0_0" index="0" speed="8.33" length="1.39" shape="7.93,512.58 7.88,512.18 7.87,511.89 7.89,511.61 7.95,511.21"/>
    </edge>
    <edge id=":1214711956_1" function="internal">
        <lane id=":1214711956_1_0" index="0" speed="8.33" length="0.46" shape="11.11,511.70 11.09,511.84 11.08,511.93 11.09,512.03 11.10,512.16"/>
    </edge>
    <edge id=":1214711957_0" function="internal">
        <lane id=":1214711957_0_0" index="0" speed="8.33" length="0.68" shape="70.41,575.19 70.33,575.37 70.26,575.50 70.19,575.62 70.09,575.78"/>
    </edge>
    <edge id=":1214711957_1" function="internal">
        <lane id=":1214711957_1_0" index="0" speed="8.33" length="0.23" shape="67.40,574.04 67.44,573.99 67.46,573.95 67.48,573.90 67.51,573.84"/>
    </edge>
    <edge id=":1214711958_0" function="internal">
        <lane id=":1214711958_0_0" index="0" speed="8.33" length="0.85" shape="61.48,373.86 61.45,373.61 61.41,373.44 61.33,373.29 61.18,373.09"/>
    </edge>
    <edge id=":1214711958_1" function="internal">
        <lane id=":1214711958_1_0" index="0" speed="7.57" length="2.56" shape="63.76,371.19 64.19,371.80 64.44,372.27 64.57,372.77 64.67,373.52"/>
    </edge>
    <edge id=":1214767208_0" function="internal">
        <lane id=":1214767208_0_0" index="0" speed="13.89" length="0.52" shape="896.79,465.05 896.63,465.07 896.53,465.09 896.42,465.10 896.27,465.12"/>
    </edge>
    <edge id=":1214767208_1" function="internal">
        <lane id=":1214767208_1_0" index="0" speed="13.89" length="0.17" shape="896.01,461.93 896.06,461.92 896.09,461.92 896.13,461.91 896.18,461.90"/>
    </edge>
    <edge id=":1214767213_0" function="internal">
        <lane id=":1214767213_0_0" index="0" speed="8.33" length="1.91" shape="1117.49,779.13 1116.93,779.20 1116.54,779.20 1116.16,779.14 1115.61,779.00"/>
    </edge>
    <edge id=":1214767213_1" function="internal">
        <lane id=":1214767213_1_0" index="0" speed="8.33" length="0.64" shape="1116.46,775.91 1116.64,775.96 1116.77,775.98 1116.90,775.98 1117.08,775.96"/>
    </edge>
    <edge id=":1214767216_0" function="internal">
        <lane id=":1214767216_0_0" index="0" speed="8.33" length="1.26" shape="713.85,489.00 713.73,488.64 713.66,488.40 713.62,488.14 713.60,487.77"/>
    </edge>
    <edge id=":1214767216_1" function="internal">
        <lane id=":1214767216_1_0" index="0" speed="8.33" length="0.42" shape="716.79,487.54 716.80,487.67 716.81,487.75 716.83,487.83 716.87,487.95"/>
    </edge>
    <edge id=":1214767227_0" function="internal">
        <lane id=":1214767227_0_0" index="0" speed="8.33" length="1.98" shape="1785.39,723.84 1784.90,723.51 1784.59,723.26 1784.33,722.95 1784.00,722.46"/>
    </edge>
    <edge id=":1214767227_1" function="internal">
        <lane id=":1214767227_1_0" index="0" speed="8.33" length="0.66" shape="1786.67,720.70 1786.78,720.86 1786.87,720.96 1786.97,721.05 1787.13,721.15"/>
    </edge>
    <edge id=":1214767233_0" function="internal">
        <lane id=":1214767233_0_0" index="0" speed="8.33" length="0.23" shape="93.39,546.83 93.32,546.86 93.28,546.88 93.23,546.90 93.17,546.93"/>
    </edge>
    <edge id=":1214767233_1" function="internal">
        <lane id=":1214767233_1_0" index="0" speed="8.33" length="0.70" shape="91.62,544.14 91.80,544.03 91.93,543.97 92.06,543.91 92.25,543.84"/>
    </edge>
    <edge id=":1214767240_0" function="internal">
        <lane id=":1214767240_0_0" index="0" speed="13.89" length="0.83" shape="1196.72,504.68 1196.47,504.68 1196.30,504.68 1196.13,504.66 1195.89,504.63"/>
    </edge>
    <edge id=":1214767240_1" function="internal">
        <lane id=":1214767240_1_0" index="0" speed="13.89" length="0.28" shape="1196.34,501.46 1196.42,501.47 1196.48,501.48 1196.53,501.48 1196.62,501.48"/>
    </edge>
    <edge id=":1214767267_0" function="internal">
        <lane id=":1214767267_0_0" index="0" speed="6.52" length="8.67" shape="1637.48,500.76 1636.43,498.65 1634.95,497.34 1633.04,496.83 1630.70,497.13"/>
    </edge>
    <edge id=":1214767267_1" function="internal">
        <lane id=":1214767267_1_0" index="0" speed="8.33" length="12.82" shape="1637.48,500.76 1636.54,497.46 1636.15,494.46 1636.43,491.50 1637.49,488.28"/>
    </edge>
    <edge id=":1214767267_2" function="internal">
        <lane id=":1214767267_2_0" index="0" speed="3.65" length="2.34" shape="1637.48,500.76 1637.86,499.37 1638.49,498.74"/>
    </edge>
    <edge id=":1214767267_9" function="internal">
        <lane id=":1214767267_9_0" index="0" speed="3.65" length="2.34" shape="1638.49,498.74 1639.38,498.87 1640.52,499.75"/>
    </edge>
    <edge id=":1214767267_3" function="internal">
        <lane id=":1214767267_3_0" index="0" speed="8.33" length="10.60" shape="1640.43,489.54 1639.38,492.41 1639.14,494.59 1639.56,496.80 1640.52,499.75"/>
    </edge>
    <edge id=":1214767267_4" function="internal">
        <lane id=":1214767267_4_0" index="0" speed="8.33" length="4.45" shape="1640.43,489.54 1638.91,492.12 1637.88,493.15"/>
    </edge>
    <edge id=":1214767267_5" function="internal">
        <lane id=":1214767267_5_0" index="0" speed="3.65" length="2.18" shape="1640.43,489.54 1639.22,490.33 1638.48,490.37"/>
    </edge>
    <edge id=":1214767267_10" function="internal">
        <lane id=":1214767267_10_0" index="0" speed="8.33" length="8.31" shape="1637.88,493.15 1636.79,494.24 1634.05,495.91 1630.70,497.13"/>
    </edge>
    <edge id=":1214767267_11" function="internal">
        <lane id=":1214767267_11_0" index="0" speed="3.65" length="2.50" shape="1638.48,490.37 1638.32,490.38 1637.75,489.70 1637.49,488.28"/>
    </edge>
    <edge id=":1214767267_6" function="internal">
        <lane id=":1214767267_6_0" index="0" speed="8.33" length="9.88" shape="1629.87,494.04 1632.52,493.09 1634.68,491.81 1636.34,490.21 1637.49,488.28"/>
    </edge>
    <edge id=":1214767267_7" function="internal">
        <lane id=":1214767267_7_0" index="0" speed="8.01" length="13.62" shape="1629.87,494.04 1633.54,493.58 1636.54,494.38 1638.87,496.44 1640.52,499.75"/>
    </edge>
    <edge id=":1214767267_8" function="internal">
        <lane id=":1214767267_8_0" index="0" speed="3.65" length="4.67" shape="1629.87,494.04 1631.23,494.50 1631.83,495.16 1631.65,496.04 1630.70,497.13"/>
    </edge>
    <edge id=":1214767278_0" function="internal">
        <lane id=":1214767278_0_0" index="0" speed="8.33" length="1.87" shape="744.99,561.71 745.17,562.24 745.26,562.61 745.28,562.99 745.25,563.55"/>
    </edge>
    <edge id=":1214767278_1" function="internal">
        <lane id=":1214767278_1_0" index="0" speed="8.33" length="0.62" shape="742.06,563.37 742.06,563.19 742.06,563.06 742.03,562.94 741.97,562.76"/>
    </edge>
    <edge id=":1214767288_0" function="internal">
        <lane id=":1214767288_0_0" index="0" speed="3.65" length="4.67" shape="355.46,176.00 356.90,175.90 357.70,176.29 357.87,177.17 357.41,178.54"/>
    </edge>
    <edge id=":1214767289_0" function="internal">
        <lane id=":1214767289_0_0" index="0" speed="8.19" length="2.20" shape="1646.84,542.88 1646.45,542.36 1646.22,541.98 1646.07,541.55 1645.93,540.92"/>
    </edge>
    <edge id=":1214767289_1" function="internal">
        <lane id=":1214767289_1_0" index="0" speed="8.33" length="0.73" shape="1649.06,540.26 1649.11,540.47 1649.16,540.61 1649.24,540.74 1649.37,540.92"/>
    </edge>
    <edge id=":1214767292_0" function="internal">
        <lane id=":1214767292_0_0" index="0" speed="8.33" length="0.81" shape="1682.62,585.88 1682.43,585.73 1682.30,585.62 1682.18,585.51 1682.02,585.33"/>
    </edge>
    <edge id=":1214767292_1" function="internal">
        <lane id=":1214767292_1_0" index="0" speed="8.33" length="0.27" shape="1684.36,583.15 1684.41,583.21 1684.45,583.25 1684.50,583.28 1684.56,583.33"/>
    </edge>
    <edge id=":1214767303_0" function="internal">
        <lane id=":1214767303_0_0" index="0" speed="13.89" length="0.41" shape="861.79,461.36 861.39,461.27"/>
    </edge>
    <edge id=":1214767303_1" function="internal">
        <lane id=":1214767303_1_0" index="0" speed="13.89" length="0.14" shape="862.26,458.19 862.40,458.22"/>
    </edge>
    <edge id=":1214767309_0" function="internal">
        <lane id=":1214767309_0_0" index="0" speed="8.33" length="0.72" shape="729.57,532.96 729.47,532.77 729.41,532.64 729.35,532.51 729.28,532.31"/>
    </edge>
    <edge id=":1214767309_1" function="internal">
        <lane id=":1214767309_1_0" index="0" speed="8.33" length="0.24" shape="732.28,531.21 732.31,531.27 732.32,531.32 732.35,531.36 732.38,531.42"/>
    </edge>
    <edge id=":1214767312_0" function="internal">
        <lane id=":1214767312_0_0" index="0" speed="13.89" length="16.24" shape="206.08,290.44 189.85,290.63"/>
    </edge>
    <edge id=":1214767312_1" function="internal">
        <lane id=":1214767312_1_0" index="0" speed="6.69" length="9.64" shape="206.08,290.44 200.23,290.13 196.73,289.05 196.67,288.95"/>
    </edge>
    <edge id=":1214767312_2" function="internal">
        <lane id=":1214767312_2_0" index="0" speed="3.65" length="2.34" shape="206.08,290.44 204.87,289.65 204.46,288.86"/>
    </edge>
    <edge id=":1214767312_9" function="internal">
        <lane id=":1214767312_9_0" index="0" speed="6.69" length="4.98" shape="196.67,288.95 195.59,287.19 196.81,284.55"/>
    </edge>
    <edge id=":1214767312_10" function="internal">
        <lane id=":1214767312_10_0" index="0" speed="3.65" length="2.34" shape="204.46,288.86 204.86,288.05 206.05,287.24"/>
    </edge>
    <edge id=":1214767312_3" function="internal">
        <lane id=":1214767312_3_0" index="0" speed="5.23" length="8.32" shape="202.05,283.08 201.04,284.93 201.37,286.24 203.04,287.01 206.05,287.24"/>
    </edge>
    <edge id=":1214767312_4" function="internal">
        <lane id=":1214767312_4_0" index="0" speed="11.11" length="14.81" shape="202.05,283.08 199.07,286.36 196.04,288.71 192.97,290.13 189.85,290.63"/>
    </edge>
    <edge id=":1214767312_5" function="internal">
        <lane id=":1214767312_5_0" index="0" speed="4.43" length="7.95" shape="202.05,283.08 201.29,285.41 200.17,286.43 198.67,286.15 196.81,284.55"/>
    </edge>
    <edge id=":1214767312_6" function="internal">
        <lane id=":1214767312_6_0" index="0" speed="8.54" length="7.82" shape="189.81,287.43 192.03,287.23 193.94,286.68 195.53,285.79 196.81,284.55"/>
    </edge>
    <edge id=":1214767312_7" function="internal">
        <lane id=":1214767312_7_0" index="0" speed="13.89" length="16.24" shape="189.81,287.43 206.05,287.24"/>
    </edge>
    <edge id=":1214767312_8" function="internal">
        <lane id=":1214767312_8_0" index="0" speed="3.65" length="2.34" shape="189.81,287.43 191.02,288.22 191.43,289.01"/>
    </edge>
    <edge id=":1214767312_11" function="internal">
        <lane id=":1214767312_11_0" index="0" speed="3.65" length="2.34" shape="191.43,289.01 191.04,289.82 189.85,290.63"/>
    </edge>
    <edge id=":1214767313_0" function="internal">
        <lane id=":1214767313_0_0" index="0" speed="8.33" length="0.87" shape="1449.06,527.40 1448.81,527.47 1448.64,527.50 1448.46,527.52 1448.20,527.54"/>
    </edge>
    <edge id=":1214767313_1" function="internal">
        <lane id=":1214767313_1_0" index="0" speed="8.33" length="0.29" shape="1447.98,524.35 1448.07,524.34 1448.12,524.34 1448.18,524.32 1448.26,524.30"/>
    </edge>
    <edge id=":1214767315_0" function="internal">
        <lane id=":1214767315_0_0" index="0" speed="13.89" length="1.13" shape="925.32,307.28 925.34,307.61 925.34,307.84 925.32,308.07 925.26,308.40"/>
    </edge>
    <edge id=":1214767315_1" function="internal">
        <lane id=":1214767315_1_0" index="0" speed="13.89" length="0.38" shape="922.11,307.84 922.13,307.74 922.14,307.66 922.14,307.58 922.13,307.47"/>
    </edge>
    <edge id=":1214767317_0" function="internal">
        <lane id=":1214767317_0_0" index="0" speed="8.33" length="0.56" shape="1749.94,668.52 1749.83,668.39 1749.76,668.30 1749.67,668.23 1749.53,668.14"/>
    </edge>
    <edge id=":1214767317_1" function="internal">
        <lane id=":1214767317_1_0" index="0" speed="8.33" length="1.69" shape="1751.26,665.45 1751.68,665.72 1751.95,665.94 1752.18,666.19 1752.49,666.59"/>
    </edge>
    <edge id=":1214767333_0" function="internal">
        <lane id=":1214767333_0_0" index="0" speed="8.33" length="9.05" shape="710.44,660.66 709.14,663.00 708.13,664.53 706.94,665.95 705.15,667.95"/>
    </edge>
    <edge id=":1214767333_1" function="internal">
        <lane id=":1214767333_1_0" index="0" speed="5.79" length="6.84" shape="710.44,660.66 708.17,664.25 706.70,664.99 706.41,664.09"/>
    </edge>
    <edge id=":1214767333_2" function="internal">
        <lane id=":1214767333_2_0" index="0" speed="3.65" length="2.34" shape="710.44,660.66 709.17,661.34 708.28,661.32"/>
    </edge>
    <edge id=":1214767333_9" function="internal">
        <lane id=":1214767333_9_0" index="0" speed="5.79" length="6.24" shape="706.41,664.09 706.02,662.88 706.15,657.91"/>
    </edge>
    <edge id=":1214767333_10" function="internal">
        <lane id=":1214767333_10_0" index="0" speed="3.65" length="2.34" shape="708.28,661.32 707.76,660.59 707.62,659.15"/>
    </edge>
    <edge id=":1214767333_3" function="internal">
        <lane id=":1214767333_3_0" index="0" speed="3.58" length="3.79" shape="709.34,658.18 709.32,657.24 709.02,657.08 708.46,657.72 707.62,659.15"/>
    </edge>
    <edge id=":1214767333_4" function="internal">
        <lane id=":1214767333_4_0" index="0" speed="8.33" length="10.93" shape="709.34,658.18 708.98,661.28 708.34,663.53 707.15,665.55 705.15,667.95"/>
    </edge>
    <edge id=":1214767333_5" function="internal">
        <lane id=":1214767333_5_0" index="0" speed="3.65" length="4.67" shape="709.34,658.18 708.45,659.31 707.62,659.64 706.85,659.18 706.15,657.91"/>
    </edge>
    <edge id=":1214767333_6" function="internal">
        <lane id=":1214767333_6_0" index="0" speed="8.33" length="8.87" shape="702.76,665.82 704.45,663.83 705.40,662.27 705.88,660.50 706.15,657.91"/>
    </edge>
    <edge id=":1214767333_7" function="internal">
        <lane id=":1214767333_7_0" index="0" speed="8.33" length="8.28" shape="702.76,665.82 704.40,663.99 705.49,662.70 706.43,661.30 707.62,659.15"/>
    </edge>
    <edge id=":1214767333_8" function="internal">
        <lane id=":1214767333_8_0" index="0" speed="3.65" length="2.34" shape="702.76,665.82 704.16,665.45 705.02,665.69"/>
    </edge>
    <edge id=":1214767333_11" function="internal">
        <lane id=":1214767333_11_0" index="0" speed="3.65" length="2.34" shape="705.02,665.69 705.35,666.52 705.15,667.95"/>
    </edge>
    <edge id=":1214767338_0" function="internal">
        <lane id=":1214767338_0_0" index="0" speed="8.33" length="0.49" shape="240.07,244.05 239.94,244.12 239.86,244.18 239.79,244.24 239.68,244.34"/>
    </edge>
    <edge id=":1214767338_1" function="internal">
        <lane id=":1214767338_1_0" index="0" speed="8.33" length="1.47" shape="237.39,242.11 237.69,241.81 237.92,241.61 238.17,241.45 238.55,241.24"/>
    </edge>
    <edge id=":1214767339_0" function="internal">
        <lane id=":1214767339_0_0" index="0" speed="8.33" length="0.48" shape="1560.00,492.71 1559.86,492.67 1559.77,492.65 1559.67,492.64 1559.53,492.64"/>
    </edge>
    <edge id=":1214767339_1" function="internal">
        <lane id=":1214767339_1_0" index="0" speed="8.33" length="1.44" shape="1559.48,489.44 1559.91,489.44 1560.20,489.46 1560.49,489.52 1560.90,489.64"/>
    </edge>
    <edge id=":1214767348_0" function="internal">
        <lane id=":1214767348_0_0" index="0" speed="8.33" length="0.31" shape="721.55,511.30 721.45,511.01"/>
    </edge>
    <edge id=":1214767348_1" function="internal">
        <lane id=":1214767348_1_0" index="0" speed="8.33" length="0.25" shape="724.47,509.96 724.56,510.20"/>
    </edge>
    <edge id=":1214767363_0" function="internal">
        <lane id=":1214767363_0_0" index="0" speed="8.33" length="0.45" shape="734.18,614.03 734.14,614.16 734.10,614.24 734.06,614.32 734.01,614.45"/>
    </edge>
    <edge id=":1214767363_1" function="internal">
        <lane id=":1214767363_1_0" index="0" speed="8.33" length="0.15" shape="731.13,613.05 731.15,613.01 731.16,612.98 731.17,612.95 731.19,612.91"/>
    </edge>
    <edge id=":1214767369_0" function="internal">
        <lane id=":1214767369_0_0" index="0" speed="13.89" length="1.47" shape="1120.86,486.40 1120.46,486.24 1120.19,486.11 1119.94,485.94 1119.60,485.68"/>
    </edge>
    <edge id=":1214767369_1" function="internal">
        <lane id=":1214767369_1_0" index="0" speed="13.89" length="0.49" shape="1121.60,483.18 1121.71,483.27 1121.80,483.32 1121.88,483.37 1122.02,483.42"/>
    </edge>