<connections>
	<connection from="727946066_1236745826_1214767333_1236745826" to="727946066_1236745826_1214767333_1358286588" />
	<connection from="727946066_1236745826_1214767333_1358286588" to="727946066_1236745826_1214767333_1214767216" />
	<connection from="727946066_1236745826_1214767333_1214767216" to="727946066_1236745826_1214767333_1214767348" />
	<connection from="727946066_1236745826_1214767333_1214767348" to="727946066_1236745826_1214767333_1214767309" />
	<connection from="727946066_1236745826_1214767333_1214767309" to="727946066_1236745826_1214767333_1214767443" />
	<connection from="727946066_1236745826_1214767333_1214767443" to="727946066_1236745826_1214767333_1214767278" />
	<connection from="727946066_1236745826_1214767333_1214767278" to="727946066_1236745826_1214767333_1214767412" />
	<connection from="727946066_1236745826_1214767333_1214767412" to="727946066_1236745826_1214767333_1214767363" />
	<connection from="727946066_1236745826_1214767333_1214767363" to="727946066_1236745826_1214767333_1214767494" />
	<connection from="727946066_1236745826_1214767333_1214767494" to="727946066_1214767333_1234666280_1214767333" />
	<connection from="727946066_1236745826_1214767333_1214767494" to="727946066_1214767333_1236745826_1214767333" />
	<connection from="727946066_1236745826_1214767333_1214767494" to="727948730_1214767333_1358286589_1214767333" />
	<connection from="34942567_410079245_1236746086_410079245" to="34942567_410079245_1236746086_410079246" />
	<connection from="34942567_410079245_1236746086_410079246" to="34942567_410079245_1236746086_410079247" />
	<connection from="34942567_410079245_1236746086_410079247" to="34942567_1236746086_410079248_1236746086" />
	<connection from="34942567_410079245_1236746086_410079247" to="107641107_1236746086_1236745861_1236746086" />
	<connection from="34942567_410079245_1236746086_410079247" to="34942567_1236746086_410079245_1236746086" />
	<connection from="107425219_1234666359_1214767267_1234666359" to="107425219_1234666359_1214767267_1234666253" />
	<connection from="107425219_1234666359_1214767267_1234666253" to="107425219_1234666359_1214767267_1234666305" />
	<connection from="107425219_1234666359_1214767267_1234666305" to="107425219_1234666359_1214767267_1234666466" />
	<connection from="107425219_1234666359_1214767267_1234666466" to="107425219_1234666359_1214767267_1234666330" />
	<connection from="107425219_1234666359_1214767267_1234666330" to="235838613_1214767267_410079189_1214767267" />
	<connection from="107425219_1234666359_1214767267_1234666330" to="38099473_1214767267_410079181_1214767267" />
	<connection from="107425219_1234666359_1214767267_1234666330" to="107425219_1214767267_1234666359_1214767267" />
	<connection from="235838613_410079189_1214767267_410079189" to="235838613_410079189_1214767267_410115762" />
	<connection from="235838613_410079189_1214767267_410115762" to="235838613_410079189_1214767267_1214767227" />
	<connection from="235838613_410079189_1214767267_1214767227" to="235838613_410079189_1214767267_410079188" />
	<connection from="235838613_410079189_1214767267_410079188" to="235838613_410079189_1214767267_1214767486" />
	<connection from="235838613_410079189_1214767267_1214767486" to="235838613_410079189_1214767267_410079187" />
	<connection from="235838613_410079189_1214767267_410079187" to="235838613_410079189_1214767267_1214767317" />
	<connection from="235838613_410079189_1214767267_1214767317" to="235838613_410079189_1214767267_1214767452" />
	<connection from="235838613_410079189_1214767267_1214767452" to="235838613_410079189_1214767267_410079186" />
	<connection from="235838613_410079189_1214767267_410079186" to="235838613_410079189_1214767267_410079185" />
	<connection from="235838613_410079189_1214767267_410079185" to="235838613_410079189_1214767267_410079184" />
	<connection from="235838613_410079189_1214767267_410079184" to="235838613_410079189_1214767267_1214767292" />
	<connection from="235838613_410079189_1214767267_1214767292" to="235838613_410079189_1214767267_410079183" />
	<connection from="235838613_410079189_1214767267_410079183" to="235838613_410079189_1214767267_1214767289" />
	<connection from="235838613_410079189_1214767267_1214767289" to="235838613_410079189_1214767267_410079182" />
	<connection from="235838613_410079189_1214767267_410079182" to="235838613_410079189_1214767267_1214767422" />
	<connection from="235838613_410079189_1214767267_1214767422" to="235838613_1214767267_410079189_1214767267" />
	<connection from="235838613_410079189_1214767267_1214767422" to="38099473_1214767267_410079181_1214767267" />
	<connection from="235838613_410079189_1214767267_1214767422" to="107425219_1214767267_1234666359_1214767267" />
	<connection from="105454485_1214670166_1358286595_1214670166" to="105454485_1358286595_1359371337_1358286595" />
	<connection from="105454485_1214670166_1358286595_1214670166" to="105454485_1358286595_1214670166_1358286595" />
	<connection from="105454485_1214670166_1358286595_1214670166" to="121293145_1358286595_1236745864_1358286595" />
	<connection from="606504148_5750327851_5750327850_5750327851" to="606504148_5750327851_5750327850_5750340716" />
	<connection from="606504148_5750327851_5750327850_5750340716" to="606504148_5750327850_5750327851_5750327850" />
	<connection from="606504148_5750327851_5750327850_5750340716" to="606504147_5750327850_5750327849_5750327850" />
	<connection from="727946066_1214767333_1236745826_1214767333" to="727946066_1214767333_1236745826_1214767494" />
	<connection from="727946066_1214767333_1236745826_1214767494" to="727946066_1214767333_1236745826_1214767363" />
	<connection from="727946066_1214767333_1236745826_1214767363" to="727946066_1214767333_1236745826_1214767412" />
	<connection from="727946066_1214767333_1236745826_1214767412" to="727946066_1214767333_1236745826_1214767278" />
	<connection from="727946066_1214767333_1236745826_1214767278" to="727946066_1214767333_1236745826_1214767443" />
	<connection from="727946066_1214767333_1236745826_1214767443" to="727946066_1214767333_1236745826_1214767309" />
	<connection from="727946066_1214767333_1236745826_1214767309" to="727946066_1214767333_1236745826_1214767348" />
	<connection from="727946066_1214767333_1236745826_1214767348" to="727946066_1214767333_1236745826_1214767216" />
	<connection from="727946066_1214767333_1236745826_1214767216" to="727946066_1214767333_1236745826_1358286588" />
	<connection from="727946066_1214767333_1236745826_1358286588" to="105465932_1236745826_410079245_1236745826" />
	<connection from="727946066_1214767333_1236745826_1358286588" to="727946066_1236745826_1214767333_1236745826" />
	<connection from="727946066_1214767333_1236745826_1358286588" to="121293144_1236745826_1358286589_1236745826" />
	<connection from="606504149_5750327851_5750327848_5750327851" to="606504146_5750327848_5750327849_5750327848" />
	<connection from="606504149_5750327851_5750327848_5750327851" to="606504149_5750327848_5750327851_5750327848" />
	<connection from="727945215_1214670166_1214711935_1214670166" to="727945215_1214670166_1214711935_1214711948" />
	<connection from="727945215_1214670166_1214711935_1214711948" to="727945215_1214670166_1214711935_1214711940" />
	<connection from="727945215_1214670166_1214711935_1214711940" to="727945215_1214670166_1214711935_1214767233" />
	<connection from="727945215_1214670166_1214711935_1214767233" to="727945215_1214670166_1214711935_1214711934" />
	<connection from="727945215_1214670166_1214711935_1214711934" to="727945215_1214670166_1214711935_1214711957" />
	<connection from="727945215_1214670166_1214711935_1214711957" to="727945215_1214670166_1214711935_1214711939" />
	<connection from="727945215_1214670166_1214711935_1214711939" to="727945215_1214670166_1214711935_1214711942" />
	<connection from="727945215_1214670166_1214711935_1214711942" to="727945215_1214711935_1214670166_1214711935" />
	<connection from="121293147_410079251_1236746058_410079251" to="121293147_410079251_1236746058_1358286587" />
	<connection from="121293147_410079251_1236746058_1358286587" to="121293147_410079251_1236746058_1358286591" />
	<connection from="121293147_410079251_1236746058_1358286591" to="121293147_410079251_1236746058_1358286593" />
	<connection from="121293147_410079251_1236746058_1358286593" to="121293147_410079251_1236746058_1358286597" />
	<connection from="121293147_410079251_1236746058_1358286597" to="121293147_410079251_1236746058_1358286612" />
	<connection from="121293147_410079251_1236746058_1358286612" to="121293147_410079251_1236746058_1358286615" />
	<connection from="121293147_410079251_1236746058_1358286615" to="121293147_410079251_1236746058_1358286614" />
	<connection from="121293147_410079251_1236746058_1358286614" to="121293147_410079251_1236746058_1358286611" />
	<connection from="121293147_410079251_1236746058_1358286611" to="121293147_410079251_1236746058_1358286600" />
	<connection from="121293147_410079251_1236746058_1358286600" to="121293147_410079251_1236746058_1358286599" />
	<connection from="121293147_410079251_1236746058_1358286599" to="121293147_410079251_1236746058_1358286602" />
	<connection from="121293147_410079251_1236746058_1358286602" to="121293147_410079251_1236746058_1358286604" />
	<connection from="121293147_410079251_1236746058_1358286604" to="121293147_410079251_1236746058_1358286613" />
	<connection from="121293147_410079251_1236746058_1358286613" to="121293147_410079251_1236746058_1358286616" />
	<connection from="121293147_410079251_1236746058_1358286616" to="121293147_410079251_1236746058_1358286617" />
	<connection from="121293147_410079251_1236746058_1358286617" to="107641109_1236746058_1236745864_1236746058" />
	<connection from="121293147_410079251_1236746058_1358286617" to="121293147_1236746058_410079251_1236746058" />
	<connection from="107425217_410079176_1234666281_410079176" to="107425217_410079176_1234666281_1234666265" />
	<connection from="107425217_410079176_1234666281_1234666265" to="107425217_410079176_1234666281_1234666319" />
	<connection from="107425217_410079176_1234666281_1234666319" to="107425217_410079176_1234666281_1234666218" />
	<connection from="107425217_410079176_1234666281_1234666218" to="107425217_410079176_1234666281_1234666489" />
	<connection from="107425217_410079176_1234666281_1234666489" to="107425217_410079176_1234666281_1234666342" />
	<connection from="107425217_410079176_1234666281_1234666342" to="107425217_410079176_1234666281_1234666397" />
	<connection from="107425217_410079176_1234666281_1234666397" to="107425217_410079176_1234666281_1234666291" />
	<connection from="107425217_410079176_1234666281_1234666291" to="107425217_410079176_1234666281_1234666620" />
	<connection from="107425217_410079176_1234666281_1234666620" to="107425217_410079176_1234666281_1234666440" />
	<connection from="107425217_410079176_1234666281_1234666440" to="107425217_410079176_1234666281_1234666529" />
	<connection from="107425217_410079176_1234666281_1234666529" to="107425217_410079176_1234666281_1234666369" />
	<connection from="107425217_410079176_1234666281_1234666369" to="107425217_410079176_1234666281_1234666261" />
	<connection from="107425217_410079176_1234666281_1234666261" to="107425217_410079176_1234666281_1234666570" />
	<connection from="107425217_410079176_1234666281_1234666570" to="107425217_410079176_1234666281_1234666275" />
	<connection from="107425217_410079176_1234666281_1234666275" to="107425217_410079176_1234666281_1234666586" />
	<connection from="107425217_410079176_1234666281_1234666586" to="107425217_410079176_1234666281_1234666414" />
	<connection from="107425217_410079176_1234666281_1234666414" to="107425217_410079176_1234666281_1234666303" />
	<connection from="107425217_410079176_1234666281_1234666303" to="107425217_410079176_1234666281_1234666349" />
	<connection from="107425217_410079176_1234666281_1234666349" to="107425217_410079176_1234666281_1234666244" />
	<connection from="107425217_410079176_1234666281_1234666244" to="107425217_410079176_1234666281_1234666543" />
	<connection from="107425217_410079176_1234666281_1234666543" to="107425217_410079176_1234666281_1234666378" />
	<connection from="107425217_410079176_1234666281_1234666378" to="107425217_410079176_1234666281_1234666449" />
	<connection from="107425217_410079176_1234666281_1234666449" to="107425217_410079176_1234666281_1234666324" />
	<connection from="107425217_410079176_1234666281_1234666324" to="107425217_410079176_1234666281_1234666224" />
	<connection from="107425217_410079176_1234666281_1234666224" to="107425217_410079176_1234666281_1234666504" />
	<connection from="107425217_410079176_1234666281_1234666504" to="107425217_410079176_1234666281_1234666577" />
	<connection from="107425217_410079176_1234666281_1234666577" to="107425217_410079176_1234666281_1234666402" />
	<connection from="107425217_410079176_1234666281_1234666402" to="107425217_410079176_1234666281_1234666297" />
	<connection from="107425217_410079176_1234666281_1234666297" to="107425217_410079176_1234666281_1234666629" />
	<connection from="107425217_410079176_1234666281_1234666629" to="107425217_410079176_1234666281_1234666309" />
	<connection from="107425217_410079176_1234666281_1234666309" to="107425217_410079176_1234666281_1234666205" />
	<connection from="107425217_410079176_1234666281_1234666205" to="107425217_410079176_1234666281_1234666469" />
	<connection from="107425217_410079176_1234666281_1234666469" to="107425217_410079176_1234666281_1234666333" />
	<connection from="107425217_410079176_1234666281_1234666333" to="107425217_1234666281_410079176_1234666281" />
	<connection from="107425217_410079176_1234666281_1234666333" to="107425187_1234666281_1234666359_1234666281" />
	<connection from="107425217_410079176_1234666281_1234666333" to="107425187_1234666281_1234666487_1234666281" />
	<connection from="107641109_1236745837_1236745779_1236745837" to="107641109_1236745837_1236745779_1236745978" />
	<connection from="107641109_1236745837_1236745779_1236745978" to="107641109_1236745837_1236745779_1236745880" />
	<connection from="107641109_1236745837_1236745779_1236745880" to="107641109_1236745837_1236745779_1236745988" />
	<connection from="107641109_1236745837_1236745779_1236745988" to="107641109_1236745837_1236745779_1236746019" />
	<connection from="107641109_1236745837_1236745779_1236746019" to="107641109_1236745837_1236745779_1236745747" />
	<connection from="107641109_1236745837_1236745779_1236745747" to="107641109_1236745837_1236745779_1236746015" />
	<connection from="107641109_1236745837_1236745779_1236746015" to="107641109_1236745837_1236745779_1236746044" />
	<connection from="107641109_1236745837_1236745779_1236746044" to="34946691_1236745779_1214767312_1236745779" />
	<connection from="107641109_1236745837_1236745779_1236746044" to="107641109_1236745779_1236745837_1236745779" />
	<connection from="107641109_1236745837_1236745779_1236746044" to="34946691_1236745779_1236745958_1236745779" />
	<connection from="107425264_1214670166_1214670138_1214670166" to="107425264_1214670166_1214670138_1214670175" />
	<connection from="107425264_1214670166_1214670138_1214670175" to="107425264_1214670166_1214670138_1214670177" />
	<connection from="107425264_1214670166_1214670138_1214670177" to="107425264_1214670166_1214670138_1214670180" />
	<connection from="107425264_1214670166_1214670138_1214670180" to="107425264_1214670166_1214670138_1359371312" />
	<connection from="107425264_1214670166_1214670138_1359371312" to="107425264_1214670138_1214670166_1214670138" />
	<connection from="107425264_1214670166_1214670138_1359371312" to="34946691_1214670138_410079268_1214670138" />
	<connection from="107425264_1214670166_1214670138_1359371312" to="34946691_1214670138_1214767312_1214670138" />
	<connection from="567962204_1236745958_5465550779_1236745958" to="567962204_1236745958_5465550779_5465550778" />
	<connection from="567962204_1236745958_5465550779_5465550778" to="567962204_5465550779_1236745958_5465550779" />
	<connection from="727947298_410079181_410079176_410079181" to="727947298_410079181_410079176_1214767339" />
	<connection from="727947298_410079181_410079176_1214767339" to="727947298_410079181_410079176_410079180" />
	<connection from="727947298_410079181_410079176_410079180" to="727947298_410079181_410079176_410079179" />
	<connection from="727947298_410079181_410079176_410079179" to="727947298_410079181_410079176_1214767478" />
	<connection from="727947298_410079181_410079176_1214767478" to="727947298_410079181_410079176_410079178" />
	<connection from="727947298_410079181_410079176_410079178" to="727947298_410079181_410079176_1214767313" />
	<connection from="727947298_410079181_410079176_1214767313" to="727947298_410079181_410079176_1214767447" />
	<connection from="727947298_410079181_410079176_1214767447" to="727947298_410079181_410079176_410079177" />
	<connection from="727947298_410079181_410079176_410079177" to="107425217_410079176_1234666281_410079176" />
	<connection from="727947298_410079181_410079176_410079177" to="727947298_410079176_410079181_410079176" />
	<connection from="727947298_410079181_410079176_410079177" to="727947298_410079176_1234666279_410079176" />
	<connection from="727945215_1214711935_1214670166_1214711935" to="727945215_1214711935_1214670166_1214711942" />
	<connection from="727945215_1214711935_1214670166_1214711942" to="727945215_1214711935_1214670166_1214711939" />
	<connection from="727945215_1214711935_1214670166_1214711939" to="727945215_1214711935_1214670166_1214711957" />
	<connection from="727945215_1214711935_1214670166_1214711957" to="727945215_1214711935_1214670166_1214711934" />
	<connection from="727945215_1214711935_1214670166_1214711934" to="727945215_1214711935_1214670166_1214767233" />
	<connection from="727945215_1214711935_1214670166_1214767233" to="727945215_1214711935_1214670166_1214711940" />
	<connection from="727945215_1214711935_1214670166_1214711940" to="727945215_1214711935_1214670166_1214711948" />
	<connection from="727945215_1214711935_1214670166_1214711948" to="107425264_1214670166_1214670138_1214670166" />
	<connection from="727945215_1214711935_1214670166_1214711948" to="105454485_1214670166_1358286595_1214670166" />
	<connection from="727945215_1214711935_1214670166_1214711948" to="727945215_1214670166_1214711935_1214670166" />
	<connection from="34946721_410079167_5750327847_410079167" to="34946721_410079167_5750327847_1214767303" />
	<connection from="34946721_410079167_5750327847_1214767303" to="34946721_410079167_5750327847_410079166" />
	<connection from="34946721_410079167_5750327847_410079166" to="34946721_5750327847_410079165_5750327847" />
	<connection from="34946721_410079167_5750327847_410079166" to="34946721_5750327847_410079167_5750327847" />
	<connection from="34946721_410079167_5750327847_410079166" to="606504146_5750327847_5750327849_5750327847" />
	<connection from="34942567_410079245_410079165_410079245" to="38099861_410079165_410079162_410079165" />
	<connection from="34942567_410079245_410079165_410079245" to="34946721_410079165_5750327847_410079165" />
	<connection from="34942567_410079245_410079165_410079245" to="34942567_410079165_410079245_410079165" />
	<connection from="105462427_1214711950_410079268_1214711950" to="105462427_1214711950_410079268_1214711952" />
	<connection from="105462427_1214711950_410079268_1214711952" to="105462427_1214711950_410079268_1214711956" />
	<connection from="105462427_1214711950_410079268_1214711956" to="105462427_1214711950_410079268_1214711953" />
	<connection from="105462427_1214711950_410079268_1214711953" to="105462427_1214711950_410079268_1214711943" />
	<connection from="105462427_1214711950_410079268_1214711943" to="105462427_1214711950_410079268_1214711933" />
	<connection from="105462427_1214711950_410079268_1214711933" to="105462427_1214711950_410079268_1214711947" />
	<connection from="105462427_1214711950_410079268_1214711947" to="105462427_1214711950_410079268_1214711958" />
	<connection from="105462427_1214711950_410079268_1214711958" to="105462427_1214711950_410079268_1359371319" />
	<connection from="105462427_1214711950_410079268_1359371319" to="105462427_410079268_1214711950_410079268" />
	<connection from="105462427_1214711950_410079268_1359371319" to="34946691_410079268_1214670138_410079268" />
	<connection from="105462427_1214711950_410079268_1359371319" to="34946691_410079268_242553386_410079268" />
	<connection from="121293147_1236746058_410079251_1236746058" to="121293147_1236746058_410079251_1358286617" />
	<connection from="121293147_1236746058_410079251_1358286617" to="121293147_1236746058_410079251_1358286616" />
	<connection from="121293147_1236746058_410079251_1358286616" to="121293147_1236746058_410079251_1358286613" />
	<connection from="121293147_1236746058_410079251_1358286613" to="121293147_1236746058_410079251_1358286604" />
	<connection from="121293147_1236746058_410079251_1358286604" to="121293147_1236746058_410079251_1358286602" />
	<connection from="121293147_1236746058_410079251_1358286602" to="121293147_1236746058_410079251_1358286599" />
	<connection from="121293147_1236746058_410079251_1358286599" to="121293147_1236746058_410079251_1358286600" />
	<connection from="121293147_1236746058_410079251_1358286600" to="121293147_1236746058_410079251_1358286611" />
	<connection from="121293147_1236746058_410079251_1358286611" to="121293147_1236746058_410079251_1358286614" />
	<connection from="121293147_1236746058_410079251_1358286614" to="121293147_1236746058_410079251_1358286615" />
	<connection from="121293147_1236746058_410079251_1358286615" to="121293147_1236746058_410079251_1358286612" />
	<connection from="121293147_1236746058_410079251_1358286612" to="121293147_1236746058_410079251_1358286597" />
	<connection from="121293147_1236746058_410079251_1358286597" to="121293147_1236746058_410079251_1358286593" />
	<connection from="121293147_1236746058_410079251_1358286593" to="121293147_1236746058_410079251_1358286591" />
	<connection from="121293147_1236746058_410079251_1358286591" to="121293147_1236746058_410079251_1358286587" />
	<connection from="121293147_1236746058_410079251_1358286587" to="34942567_410079251_410079248_410079251" />
	<connection from="121293147_1236746058_410079251_1358286587" to="34946691_410079251_1236745958_410079251" />
	<connection from="121293147_1236746058_410079251_1358286587" to="121293147_410079251_1236746058_410079251" />
	<connection from="107641109_1236745779_1236745837_1236745779" to="107641109_1236745779_1236745837_1236746044" />
	<connection from="107641109_1236745779_1236745837_1236746044" to="107641109_1236745779_1236745837_1236746015" />
	<connection from="107641109_1236745779_1236745837_1236746015" to="107641109_1236745779_1236745837_1236745747" />
	<connection from="107641109_1236745779_1236745837_1236745747" to="107641109_1236745779_1236745837_1236746019" />
	<connection from="107641109_1236745779_1236745837_1236746019" to="107641109_1236745779_1236745837_1236745988" />
	<connection from="107641109_1236745779_1236745837_1236745988" to="107641109_1236745779_1236745837_1236745880" />
	<connection from="107641109_1236745779_1236745837_1236745880" to="107641109_1236745779_1236745837_1236745978" />
	<connection from="107641109_1236745779_1236745837_1236745978" to="107641109_1236745837_1236745779_1236745837" />
	<connection from="107641109_1236745779_1236745837_1236745978" to="107641109_1236745837_1236745864_1236745837" />
	<connection from="107641109_1236745779_1236745837_1236745978" to="107641100_1236745837_1236745958_1236745837" />
	<connection from="727948730_1358286589_1214767333_1358286589" to="727948730_1358286589_1214767333_6821685992" />
	<connection from="727948730_1358286589_1214767333_6821685992" to="727948730_1358286589_1214767333_6821685991" />
	<connection from="727948730_1358286589_1214767333_6821685991" to="727948730_1358286589_1214767333_6821685990" />
	<connection from="727948730_1358286589_1214767333_6821685990" to="727948730_1358286589_1214767333_6821685989" />
	<connection from="727948730_1358286589_1214767333_6821685989" to="727948730_1358286589_1214767333_6821685988" />
	<connection from="727948730_1358286589_1214767333_6821685988" to="727948730_1358286589_1214767333_6821685987" />
	<connection from="727948730_1358286589_1214767333_6821685987" to="727948730_1358286589_1214767333_6821685986" />
	<connection from="727948730_1358286589_1214767333_6821685986" to="727948730_1358286589_1214767333_6821685985" />
	<connection from="727948730_1358286589_1214767333_6821685985" to="727948730_1358286589_1214767333_6821666884" />
	<connection from="727948730_1358286589_1214767333_6821666884" to="727948730_1358286589_1214767333_6821666883" />
	<connection from="727948730_1358286589_1214767333_6821666883" to="727948730_1358286589_1214767333_6821666882" />
	<connection from="727948730_1358286589_1214767333_6821666882" to="727948730_1358286589_1214767333_6821666881" />
	<connection from="727948730_1358286589_1214767333_6821666881" to="727948730_1358286589_1214767333_6821666880" />
	<connection from="727948730_1358286589_1214767333_6821666880" to="727948730_1358286589_1214767333_6821666879" />
	<connection from="727948730_1358286589_1214767333_6821666879" to="727948730_1358286589_1214767333_6821666878" />
	<connection from="727948730_1358286589_1214767333_6821666878" to="727948730_1358286589_1214767333_6821666877" />
	<connection from="727948730_1358286589_1214767333_6821666877" to="727948730_1358286589_1214767333_6821666876" />
	<connection from="727948730_1358286589_1214767333_6821666876" to="727948730_1358286589_1214767333_6821666875" />
	<connection from="727948730_1358286589_1214767333_6821666875" to="727948730_1358286589_1214767333_6821666874" />
	<connection from="727948730_1358286589_1214767333_6821666874" to="727948730_1358286589_1214767333_6821666873" />
	<connection from="727948730_1358286589_1214767333_6821666873" to="727948730_1358286589_1214767333_6821666872" />
	<connection from="727948730_1358286589_1214767333_6821666872" to="727948730_1358286589_1214767333_6821666871" />
	<connection from="727948730_1358286589_1214767333_6821666871" to="727948730_1358286589_1214767333_6821666870" />
	<connection from="727948730_1358286589_1214767333_6821666870" to="727948730_1358286589_1214767333_6821666869" />
	<connection from="727948730_1358286589_1214767333_6821666869" to="727948730_1358286589_1214767333_6821666868" />
	<connection from="727948730_1358286589_1214767333_6821666868" to="727948730_1358286589_1214767333_6821666867" />
	<connection from="727948730_1358286589_1214767333_6821666867" to="727948730_1358286589_1214767333_6821666866" />
	<connection from="727948730_1358286589_1214767333_6821666866" to="727948730_1358286589_1214767333_6821666865" />
	<connection from="727948730_1358286589_1214767333_6821666865" to="727946066_1214767333_1234666280_1214767333" />
	<connection from="727948730_1358286589_1214767333_6821666865" to="727946066_1214767333_1236745826_1214767333" />
	<connection from="727948730_1358286589_1214767333_6821666865" to="727948730_1214767333_1358286589_1214767333" />
	<connection from="107641107_1236745861_1236746086_1236745861" to="107641107_1236745861_1236746086_1236745989" />
	<connection from="107641107_1236745861_1236746086_1236745989" to="107641107_1236745861_1236746086_1236746020" />
	<connection from="107641107_1236745861_1236746086_1236746020" to="107641107_1236745861_1236746086_1236745748" />
	<connection from="107641107_1236745861_1236746086_1236745748" to="107641107_1236745861_1236746086_1236745965" />
	<connection from="107641107_1236745861_1236746086_1236745965" to="107641107_1236745861_1236746086_1236746065" />
	<connection from="107641107_1236745861_1236746086_1236746065" to="34942567_1236746086_410079248_1236746086" />
	<connection from="107641107_1236745861_1236746086_1236746065" to="107641107_1236746086_1236745861_1236746086" />
	<connection from="107641107_1236745861_1236746086_1236746065" to="34942567_1236746086_410079245_1236746086" />
	<connection from="105462427_410079268_1214711950_410079268" to="105462427_410079268_1214711950_1359371319" />
	<connection from="105462427_410079268_1214711950_1359371319" to="105462427_410079268_1214711950_1214711958" />
	<connection from="105462427_410079268_1214711950_1214711958" to="105462427_410079268_1214711950_1214711947" />
	<connection from="105462427_410079268_1214711950_1214711947" to="105462427_410079268_1214711950_1214711933" />
	<connection from="105462427_410079268_1214711950_1214711933" to="105462427_410079268_1214711950_1214711943" />
	<connection from="105462427_410079268_1214711950_1214711943" to="105462427_410079268_1214711950_1214711953" />
	<connection from="105462427_410079268_1214711950_1214711953" to="105462427_410079268_1214711950_1214711956" />
	<connection from="105462427_410079268_1214711950_1214711956" to="105462427_410079268_1214711950_1214711952" />
	<connection from="105462427_410079268_1214711950_1214711952" to="105462427_1214711950_410079268_1214711950" />
	<connection from="34946691_1236745958_410079251_1236745958" to="34946691_1236745958_410079251_410079254" />
	<connection from="34946691_1236745958_410079251_410079254" to="34946691_1236745958_410079251_410079253" />
	<connection from="34946691_1236745958_410079251_410079253" to="34946691_1236745958_410079251_410079252" />
	<connection from="34946691_1236745958_410079251_410079252" to="34942567_410079251_410079248_410079251" />
	<connection from="34946691_1236745958_410079251_410079252" to="34946691_410079251_1236745958_410079251" />
	<connection from="34946691_1236745958_410079251_410079252" to="121293147_410079251_1236746058_410079251" />
	<connection from="727946066_1234666280_1214767333_1234666280" to="727946066_1234666280_1214767333_1214767471" />
	<connection from="727946066_1234666280_1214767333_1214767471" to="727946066_1214767333_1234666280_1214767333" />