<?xml version="1.0" ?>
<!-- Generated by VSimRTI -->
<routes>
	<vType id="default" length="7.5" maxSpeed="50" minGap="2.0" carFollowModel="Krauss" accel="0.80" decel="4.5" sigma="0.5" tau="1"/>
	<route id="1" edges="34946691_410079268_242553386_410079270 34946691_410079268_242553386_410079271 34946691_410079268_242553386_410079272 34946691_242553386_410079268_242553386 34946691_242553386_410079268_410079272 34946691_242553386_410079268_410079271 34946691_242553386_410079268_410079270 34946691_242553386_410079268_410079269 34946691_410079268_1214670138_410079268 34946691_410079268_1214670138_410079267 34946691_410079268_1214670138_410079266 34946691_410079268_1214670138_410079265 34946691_410079268_1214670138_410079264 34946691_410079268_1214670138_410079263 34946691_410079268_1214670138_410079262 34946691_1214670138_1214767312_1214670138 34946691_1214767312_1236745779_1214767312 34946691_1214767312_1236745779_410079259 34946691_1214767312_1236745779_410079258 34946691_1214767312_1236745779_410079257 34946691_1236745779_1236745958_1236745779 34946691_1236745779_1236745958_410079256 34946691_1236745779_1236745958_410079255 34946691_1236745958_410079251_1236745958 34946691_1236745958_410079251_410079254 34946691_1236745958_410079251_410079253 34946691_1236745958_410079251_410079252 34942567_410079251_410079248_410079251 34942567_410079251_410079248_410079250 34942567_410079251_410079248_410079249 34942567_410079248_1236746086_410079248 34942567_1236746086_410079245_1236746086 34942567_1236746086_410079245_410079247 34942567_1236746086_410079245_410079246 34942567_410079245_410079165_410079245 34946721_410079165_5750327847_410079165 34946721_5750327847_410079167_5750327847 34946721_5750327847_410079167_410079166 34946721_5750327847_410079167_1214767303 38099476_410079167_410079174_410079167 38099476_410079167_410079174_1214767208 38099476_410079167_410079174_410079168 38099476_410079167_410079174_410079169 38099476_410079167_410079174_410079170 38099476_410079167_410079174_410079171 38099476_410079167_410079174_1214767369 38099476_410079167_410079174_410079172 38099476_410079167_410079174_410079173 38099476_410079167_410079174_1214767240 38099475_410079174_1234666279_410079174 38099475_410079174_1234666279_410079175 38099475_410079174_1234666279_1214767403 727947298_1234666279_410079176_1234666279 727947298_410079176_410079181_410079176 727947298_410079176_410079181_410079177 727947298_410079176_410079181_1214767447 727947298_410079176_410079181_1214767313 727947298_410079176_410079181_410079178 727947298_410079176_410079181_1214767478 727947298_410079176_410079181_410079179 727947298_410079176_410079181_410079180 727947298_410079176_410079181_1214767339 38099473_410079181_1214767267_410079181 38099473_410079181_1214767267_1214767390 235838613_1214767267_410079189_1214767267" />
	<route id="2" edges="235838613_1214767267_410079189_1214767422 235838613_1214767267_410079189_410079182 235838613_1214767267_410079189_1214767289 235838613_1214767267_410079189_410079183 235838613_1214767267_410079189_1214767292 235838613_1214767267_410079189_410079184 235838613_1214767267_410079189_410079185 235838613_1214767267_410079189_410079186 235838613_1214767267_410079189_1214767452 235838613_1214767267_410079189_1214767317 235838613_1214767267_410079189_410079187 235838613_1214767267_410079189_1214767486 235838613_1214767267_410079189_410079188 235838613_1214767267_410079189_1214767227 235838613_1214767267_410079189_410115762 235838613_410079189_1214767267_410079189 235838613_410079189_1214767267_410115762 235838613_410079189_1214767267_1214767227 235838613_410079189_1214767267_410079188 235838613_410079189_1214767267_1214767486 235838613_410079189_1214767267_410079187 235838613_410079189_1214767267_1214767317 235838613_410079189_1214767267_1214767452 235838613_410079189_1214767267_410079186 235838613_410079189_1214767267_410079185 235838613_410079189_1214767267_410079184 235838613_410079189_1214767267_1214767292 235838613_410079189_1214767267_410079183 235838613_410079189_1214767267_1214767289 235838613_410079189_1214767267_410079182 235838613_410079189_1214767267_1214767422 38099473_1214767267_410079181_1214767267 38099473_1214767267_410079181_1214767390 727947298_410079181_410079176_410079181 727947298_410079181_410079176_1214767339 727947298_410079181_410079176_410079180 727947298_410079181_410079176_410079179 727947298_410079181_410079176_1214767478 727947298_410079181_410079176_410079178 727947298_410079181_410079176_1214767313 727947298_410079181_410079176_1214767447 727947298_410079181_410079176_410079177 727947298_410079176_1234666279_410079176 38099475_1234666279_410079174_1234666279 38099475_1234666279_410079174_1214767403 38099475_1234666279_410079174_410079175 38099476_410079174_410079167_410079174 38099476_410079174_410079167_1214767240 38099476_410079174_410079167_410079173 38099476_410079174_410079167_410079172 38099476_410079174_410079167_1214767369 38099476_410079174_410079167_410079171 38099476_410079174_410079167_410079170 38099476_410079174_410079167_410079169 38099476_410079174_410079167_410079168 38099476_410079174_410079167_1214767208 34946721_410079167_5750327847_410079167 34946721_410079167_5750327847_1214767303 34946721_410079167_5750327847_410079166 34946721_5750327847_410079165_5750327847 34942567_410079165_410079245_410079165 34942567_410079245_1236746086_410079245 34942567_410079245_1236746086_410079246 34942567_410079245_1236746086_410079247 34942567_1236746086_410079248_1236746086 34942567_410079248_410079251_410079248 34942567_410079248_410079251_410079249 34942567_410079248_410079251_410079250 34946691_410079251_1236745958_410079251 34946691_410079251_1236745958_410079252 34946691_410079251_1236745958_410079253 34946691_410079251_1236745958_410079254 34946691_1236745958_1236745779_1236745958 34946691_1236745958_1236745779_410079255 34946691_1236745958_1236745779_410079256 34946691_1236745779_1214767312_1236745779 34946691_1236745779_1214767312_410079257 34946691_1236745779_1214767312_410079258 34946691_1236745779_1214767312_410079259 34946691_1214767312_1214670138_1214767312 34946691_1214670138_410079268_1214670138 34946691_1214670138_410079268_410079262 34946691_1214670138_410079268_410079263 34946691_1214670138_410079268_410079264 34946691_1214670138_410079268_410079265 34946691_1214670138_410079268_410079266 34946691_1214670138_410079268_410079267 34946691_410079268_242553386_410079268 34946691_410079268_242553386_410079269" />
	<route id="3" edges="105454485_1214677762_1359371337_1214677763 105454485_1214677762_1359371337_1214677760 105454485_1214677762_1359371337_1359371339 105454485_1359371337_1358286595_1359371337 105454485_1358286595_1214670166_1358286595 107425264_1214670166_1214670138_1214670166 107425264_1214670166_1214670138_1214670175 107425264_1214670166_1214670138_1214670177 107425264_1214670166_1214670138_1214670180 107425264_1214670166_1214670138_1359371312 34946691_1214670138_1214767312_1214670138 34946691_1214767312_1236745779_1214767312 34946691_1214767312_1236745779_410079259 34946691_1214767312_1236745779_410079258 34946691_1214767312_1236745779_410079257 34946691_1236745779_1236745958_1236745779 34946691_1236745779_1236745958_410079256 34946691_1236745779_1236745958_410079255 34946691_1236745958_410079251_1236745958 34946691_1236745958_410079251_410079254 34946691_1236745958_410079251_410079253 34946691_1236745958_410079251_410079252 34942567_410079251_410079248_410079251 34942567_410079251_410079248_410079250 34942567_410079251_410079248_410079249 34942567_410079248_1236746086_410079248 34942567_1236746086_410079245_1236746086 34942567_1236746086_410079245_410079247 34942567_1236746086_410079245_410079246 34942567_410079245_410079165_410079245 34946721_410079165_5750327847_410079165 34946721_5750327847_410079167_5750327847 34946721_5750327847_410079167_410079166 34946721_5750327847_410079167_1214767303 38099476_410079167_410079174_410079167 38099476_410079167_410079174_1214767208 38099476_410079167_410079174_410079168 38099476_410079167_410079174_410079169 38099476_410079167_410079174_410079170 38099476_410079167_410079174_410079171 38099476_410079167_410079174_1214767369 38099476_410079167_410079174_410079172 38099476_410079167_410079174_410079173 38099476_410079167_410079174_1214767240 38099475_410079174_1234666279_410079174 38099475_410079174_1234666279_410079175 38099475_410079174_1234666279_1214767403 727947298_1234666279_410079176_1234666279 727947298_410079176_410079181_410079176 727947298_410079176_410079181_410079177 727947298_410079176_410079181_1214767447 727947298_410079176_410079181_1214767313 727947298_410079176_410079181_410079178 727947298_410079176_410079181_1214767478 727947298_410079176_410079181_410079179 727947298_410079176_410079181_410079180 727947298_410079176_410079181_1214767339 38099473_410079181_1214767267_410079181 38099473_410079181_1214767267_1214767390 235838613_1214767267_410079189_1214767267" />
	<route id="4" edges="34946657_410118161_410079167_1214767315 34946657_410118161_410079167_1214767371 34946657_410118161_410079167_5750327860 34946657_410118161_410079167_5750327859 34946657_410118161_410079167_1214767406 38099476_410079167_410079174_410079167 38099476_410079167_410079174_1214767208 38099476_410079167_410079174_410079168 38099476_410079167_410079174_410079169 38099476_410079167_410079174_410079170 38099476_410079167_410079174_410079171 38099476_410079167_410079174_1214767369 38099476_410079167_410079174_410079172 38099476_410079167_410079174_410079173 38099476_410079167_410079174_1214767240 38099475_410079174_1234666279_410079174 38099475_410079174_1234666279_410079175 38099475_410079174_1234666279_1214767403 727947298_1234666279_410079176_1234666279 727947298_410079176_410079181_410079176 727947298_410079176_410079181_410079177 727947298_410079176_410079181_1214767447 727947298_410079176_410079181_1214767313 727947298_410079176_410079181_410079178 727947298_410079176_410079181_1214767478 727947298_410079176_410079181_410079179 727947298_410079176_410079181_410079180 727947298_410079176_410079181_1214767339 38099473_410079181_1214767267_410079181 38099473_410079181_1214767267_1214767390 107425219_1214767267_1234666359_1214767267 107425219_1214767267_1234666359_1234666330 107425219_1214767267_1234666359_1234666466 107425219_1214767267_1234666359_1234666305 107425219_1214767267_1234666359_1234666253 107425187_1234666359_1234666281_1234666359 107425187_1234666359_1234666281_1234666514 107425187_1234666359_1234666281_1234666360 107425187_1234666359_1234666281_1234666420 107425187_1234666359_1234666281_1234666307 107425187_1234666359_1234666281_1234666203 107425187_1234666359_1234666281_1234666467 107425187_1234666359_1234666281_1234666549 107425187_1234666359_1234666281_1234666382 107425217_1234666281_410079176_1234666281 107425217_1234666281_410079176_1234666333 107425217_1234666281_410079176_1234666469" />
	<route id="5" edges="107425187_1234666487_1234666281_1234666487 107425187_1234666487_1234666281_1234666282 107425187_1234666487_1234666281_1234666383 107425187_1234666487_1234666281_1234666551 107425187_1234666487_1234666281_1234666249 107425187_1234666487_1234666281_1234666204 107425187_1234666487_1234666281_1234666308 107425187_1234666487_1234666281_1234666423 107425187_1234666487_1234666281_1234666597 107425187_1234666487_1234666281_1234666516 107425187_1234666487_1234666281_1234666231 107425187_1234666487_1234666281_1234666331 107425187_1234666487_1234666281_1234666468 107425187_1234666487_1234666281_1234666389 107425187_1234666487_1234666281_1234666559 107425187_1234666487_1234666281_1234666255 107425187_1234666487_1234666281_1234666362 107425187_1234666487_1234666281_1234666595 107425187_1234666281_1234666359_1234666281 107425187_1234666281_1234666359_1234666382 107425187_1234666281_1234666359_1234666549 107425187_1234666281_1234666359_1234666467 107425187_1234666281_1234666359_1234666203 107425187_1234666281_1234666359_1234666307 107425187_1234666281_1234666359_1234666420 107425187_1234666281_1234666359_1234666360 107425187_1234666281_1234666359_1234666514 107425219_1234666359_1214767267_1234666359 107425219_1234666359_1214767267_1234666253 107425219_1234666359_1214767267_1234666305 107425219_1234666359_1214767267_1234666466 107425219_1234666359_1214767267_1234666330 38099473_1214767267_410079181_1214767267 38099473_1214767267_410079181_1214767390 727947298_410079181_410079176_410079181 727947298_410079181_410079176_1214767339 727947298_410079181_410079176_410079180 727947298_410079181_410079176_410079179 727947298_410079181_410079176_1214767478 727947298_410079181_410079176_410079178 727947298_410079181_410079176_1214767313 727947298_410079181_410079176_1214767447 727947298_410079181_410079176_410079177 727947298_410079176_1234666279_410079176 38099475_1234666279_410079174_1234666279 38099475_1234666279_410079174_1214767403 38099475_1234666279_410079174_410079175 38099476_410079174_410079167_410079174 38099476_410079174_410079167_1214767240 38099476_410079174_410079167_410079173 38099476_410079174_410079167_410079172 38099476_410079174_410079167_1214767369 38099476_410079174_410079167_410079171 38099476_410079174_410079167_410079170 38099476_410079174_410079167_410079169 38099476_410079174_410079167_410079168 38099476_410079174_410079167_1214767208 34946657_410079167_410118161_410079167 34946657_410079167_410118161_1214767406 34946657_410079167_410118161_5750327859 34946657_410079167_410118161_5750327860 34946657_410079167_410118161_1214767371 34946657_410079167_410118161_1214767315 34946657_410079167_410118161_1214767479 34946657_410079167_410118161_410118162 34946657_410118161_410079167_410118161 34946657_410118161_410079167_410118162 34946657_410118161_410079167_1214767479" />
	<route id="6" edges="235838613_1214767267_410079189_1214767486 235838613_1214767267_410079189_410079188 235838613_1214767267_410079189_1214767227 235838613_1214767267_410079189_410115762 235838613_410079189_1214767267_410079189 235838613_410079189_1214767267_410115762 235838613_410079189_1214767267_1214767227 235838613_410079189_1214767267_410079188 235838613_410079189_1214767267_1214767486 235838613_410079189_1214767267_410079187 235838613_410079189_1214767267_1214767317 235838613_410079189_1214767267_1214767452 235838613_410079189_1214767267_410079186 235838613_410079189_1214767267_410079185 235838613_410079189_1214767267_410079184 235838613_410079189_1214767267_1214767292 235838613_410079189_1214767267_410079183 235838613_410079189_1214767267_1214767289 235838613_410079189_1214767267_410079182 235838613_410079189_1214767267_1214767422 107425219_1214767267_1234666359_1214767267 107425219_1214767267_1234666359_1234666330 107425219_1214767267_1234666359_1234666466 107425219_1214767267_1234666359_1234666305 107425219_1214767267_1234666359_1234666253" />
	<route id="7" edges="727946066_1214767333_1234666280_1214767471 727946066_1234666280_1214767333_1234666280 727946066_1234666280_1214767333_1214767471 727946066_1214767333_1236745826_1214767333 727946066_1214767333_1236745826_1214767494 727946066_1214767333_1236745826_1214767363 727946066_1214767333_1236745826_1214767412 727946066_1214767333_1236745826_1214767278 727946066_1214767333_1236745826_1214767443 727946066_1214767333_1236745826_1214767309 727946066_1214767333_1236745826_1214767348 727946066_1214767333_1236745826_1214767216 727946066_1214767333_1236745826_1358286588 105465932_1236745826_410079245_1236745826 105465932_1236745826_410079245_1236746093 105465932_1236745826_410079245_1214767459 34942567_410079245_1236746086_410079245 34942567_410079245_1236746086_410079246 34942567_410079245_1236746086_410079247 107641107_1236746086_1236745861_1236746086 107641107_1236746086_1236745861_1236746065 107641107_1236746086_1236745861_1236745965 107641107_1236746086_1236745861_1236745748 107641107_1236746086_1236745861_1236746020 107641107_1236746086_1236745861_1236745989 107641107_1236745861_1236745831_1236745861 107641107_1236745861_1236745831_1236745970 107641107_1236745861_1236745831_1236745818 107641107_1236745861_1236745831_1236746037 107641107_1236745861_1236745831_1236746082 107641107_1236745861_1236745831_1236745959 107641107_1236745861_1236745831_1236745910 107641107_1236745861_1236745831_1236745939 107641107_1236745861_1236745831_1236745777" />
	<route id="8" edges="107641107_1236745861_1236745831_1236746030 107641107_1236745861_1236745831_1236746001 107641107_1236745861_1236745831_1236745893 107641107_1236745861_1236745831_5750354936 107641107_1236745861_1236745831_1236745979 107641107_1236745831_1236745861_1236745831 107641107_1236745831_1236745861_1236745979 107641107_1236745831_1236745861_5750354936 107641107_1236745831_1236745861_1236745893 107641107_1236745831_1236745861_1236746001 107641107_1236745831_1236745861_1236746030 107641107_1236745831_1236745861_1236745777 107641107_1236745831_1236745861_1236745939 107641107_1236745831_1236745861_1236745910 107641107_1236745831_1236745861_1236745959 107641107_1236745831_1236745861_1236746082 107641107_1236745831_1236745861_1236746037 107641107_1236745831_1236745861_1236745818 107641107_1236745831_1236745861_1236745970 107641107_1236745861_1236746086_1236745861 107641107_1236745861_1236746086_1236745989 107641107_1236745861_1236746086_1236746020 107641107_1236745861_1236746086_1236745748 107641107_1236745861_1236746086_1236745965 107641107_1236745861_1236746086_1236746065 34942567_1236746086_410079245_1236746086 34942567_1236746086_410079245_410079247 34942567_1236746086_410079245_410079246 105465932_410079245_1236745826_410079245 105465932_410079245_1236745826_1214767459 105465932_410079245_1236745826_1236746093 727946066_1236745826_1214767333_1236745826 727946066_1236745826_1214767333_1358286588 727946066_1236745826_1214767333_1214767216 727946066_1236745826_1214767333_1214767348 727946066_1236745826_1214767333_1214767309 727946066_1236745826_1214767333_1214767443 727946066_1236745826_1214767333_1214767278 727946066_1236745826_1214767333_1214767412 727946066_1236745826_1214767333_1214767363 727946066_1236745826_1214767333_1214767494 727946066_1214767333_1234666280_1214767333" />
</routes>