<edges>
	<edge id="727946066_1236745826_1214767333_1236745826" from="1236745826" to="1358286588" numLanes="1" speed="8.33" />
	<edge id="727946066_1236745826_1214767333_1358286588" from="1358286588" to="1214767216" numLanes="1" speed="8.33" />
	<edge id="727946066_1236745826_1214767333_1214767216" from="1214767216" to="1214767348" numLanes="1" speed="8.33" />
	<edge id="727946066_1236745826_1214767333_1214767348" from="1214767348" to="1214767309" numLanes="1" speed="8.33" />
	<edge id="727946066_1236745826_1214767333_1214767309" from="1214767309" to="1214767443" numLanes="1" speed="8.33" />
	<edge id="727946066_1236745826_1214767333_1214767443" from="1214767443" to="1214767278" numLanes="1" speed="8.33" />
	<edge id="727946066_1236745826_1214767333_1214767278" from="1214767278" to="1214767412" numLanes="1" speed="8.33" />
	<edge id="727946066_1236745826_1214767333_1214767412" from="1214767412" to="1214767363" numLanes="1" speed="8.33" />
	<edge id="727946066_1236745826_1214767333_1214767363" from="1214767363" to="1214767494" numLanes="1" speed="8.33" />
	<edge id="727946066_1236745826_1214767333_1214767494" from="1214767494" to="1214767333" numLanes="1" speed="8.33" />
	<edge id="34942567_410079245_1236746086_410079245" from="410079245" to="410079246" numLanes="1" speed="13.89" />
	<edge id="34942567_410079245_1236746086_410079246" from="410079246" to="410079247" numLanes="1" speed="13.89" />
	<edge id="34942567_410079245_1236746086_410079247" from="410079247" to="1236746086" numLanes="1" speed="13.89" />
	<edge id="107425219_1234666359_1214767267_1234666359" from="1234666359" to="1234666253" numLanes="1" speed="8.33" />
	<edge id="107425219_1234666359_1214767267_1234666253" from="1234666253" to="1234666305" numLanes="1" speed="8.33" />
	<edge id="107425219_1234666359_1214767267_1234666305" from="1234666305" to="1234666466" numLanes="1" speed="8.33" />
	<edge id="107425219_1234666359_1214767267_1234666466" from="1234666466" to="1234666330" numLanes="1" speed="8.33" />
	<edge id="107425219_1234666359_1214767267_1234666330" from="1234666330" to="1214767267" numLanes="1" speed="8.33" />
	<edge id="235838613_410079189_1214767267_410079189" from="410079189" to="410115762" numLanes="1" speed="8.33" />
	<edge id="235838613_410079189_1214767267_410115762" from="410115762" to="1214767227" numLanes="1" speed="8.33" />
	<edge id="235838613_410079189_1214767267_1214767227" from="1214767227" to="410079188" numLanes="1" speed="8.33" />
	<edge id="235838613_410079189_1214767267_410079188" from="410079188" to="1214767486" numLanes="1" speed="8.33" />
	<edge id="235838613_410079189_1214767267_1214767486" from="1214767486" to="410079187" numLanes="1" speed="8.33" />
	<edge id="235838613_410079189_1214767267_410079187" from="410079187" to="1214767317" numLanes="1" speed="8.33" />
	<edge id="235838613_410079189_1214767267_1214767317" from="1214767317" to="1214767452" numLanes="1" speed="8.33" />
	<edge id="235838613_410079189_1214767267_1214767452" from="1214767452" to="410079186" numLanes="1" speed="8.33" />
	<edge id="235838613_410079189_1214767267_410079186" from="410079186" to="410079185" numLanes="1" speed="8.33" />
	<edge id="235838613_410079189_1214767267_410079185" from="410079185" to="410079184" numLanes="1" speed="8.33" />
	<edge id="235838613_410079189_1214767267_410079184" from="410079184" to="1214767292" numLanes="1" speed="8.33" />
	<edge id="235838613_410079189_1214767267_1214767292" from="1214767292" to="410079183" numLanes="1" speed="8.33" />
	<edge id="235838613_410079189_1214767267_410079183" from="410079183" to="1214767289" numLanes="1" speed="8.33" />
	<edge id="235838613_410079189_1214767267_1214767289" from="1214767289" to="410079182" numLanes="1" speed="8.33" />
	<edge id="235838613_410079189_1214767267_410079182" from="410079182" to="1214767422" numLanes="1" speed="8.33" />
	<edge id="235838613_410079189_1214767267_1214767422" from="1214767422" to="1214767267" numLanes="1" speed="8.33" />
	<edge id="105454485_1214670166_1358286595_1214670166" from="1214670166" to="1358286595" numLanes="1" speed="8.33" />
	<edge id="606504148_5750327851_5750327850_5750327851" from="5750327851" to="5750340716" numLanes="1" speed="8.33" />
	<edge id="606504148_5750327851_5750327850_5750340716" from="5750340716" to="5750327850" numLanes="1" speed="8.33" />
	<edge id="727946066_1214767333_1236745826_1214767333" from="1214767333" to="1214767494" numLanes="1" speed="8.33" />
	<edge id="727946066_1214767333_1236745826_1214767494" from="1214767494" to="1214767363" numLanes="1" speed="8.33" />
	<edge id="727946066_1214767333_1236745826_1214767363" from="1214767363" to="1214767412" numLanes="1" speed="8.33" />
	<edge id="727946066_1214767333_1236745826_1214767412" from="1214767412" to="1214767278" numLanes="1" speed="8.33" />
	<edge id="727946066_1214767333_1236745826_1214767278" from="1214767278" to="1214767443" numLanes="1" speed="8.33" />
	<edge id="727946066_1214767333_1236745826_1214767443" from="1214767443" to="1214767309" numLanes="1" speed="8.33" />
	<edge id="727946066_1214767333_1236745826_1214767309" from="1214767309" to="1214767348" numLanes="1" speed="8.33" />
	<edge id="727946066_1214767333_1236745826_1214767348" from="1214767348" to="1214767216" numLanes="1" speed="8.33" />
	<edge id="727946066_1214767333_1236745826_1214767216" from="1214767216" to="1358286588" numLanes="1" speed="8.33" />
	<edge id="727946066_1214767333_1236745826_1358286588" from="1358286588" to="1236745826" numLanes="1" speed="8.33" />
	<edge id="606504149_5750327851_5750327848_5750327851" from="5750327851" to="5750327848" numLanes="1" speed="8.33" />
	<edge id="727945215_1214670166_1214711935_1214670166" from="1214670166" to="1214711948" numLanes="1" speed="8.33" />
	<edge id="727945215_1214670166_1214711935_1214711948" from="1214711948" to="1214711940" numLanes="1" speed="8.33" />
	<edge id="727945215_1214670166_1214711935_1214711940" from="1214711940" to="1214767233" numLanes="1" speed="8.33" />
	<edge id="727945215_1214670166_1214711935_1214767233" from="1214767233" to="1214711934" numLanes="1" speed="8.33" />
	<edge id="727945215_1214670166_1214711935_1214711934" from="1214711934" to="1214711957" numLanes="1" speed="8.33" />
	<edge id="727945215_1214670166_1214711935_1214711957" from="1214711957" to="1214711939" numLanes="1" speed="8.33" />
	<edge id="727945215_1214670166_1214711935_1214711939" from="1214711939" to="1214711942" numLanes="1" speed="8.33" />
	<edge id="727945215_1214670166_1214711935_1214711942" from="1214711942" to="1214711935" numLanes="1" speed="8.33" />
	<edge id="121293147_410079251_1236746058_410079251" from="410079251" to="1358286587" numLanes="1" speed="8.33" />
	<edge id="121293147_410079251_1236746058_1358286587" from="1358286587" to="1358286591" numLanes="1" speed="8.33" />
	<edge id="121293147_410079251_1236746058_1358286591" from="1358286591" to="1358286593" numLanes="1" speed="8.33" />
	<edge id="121293147_410079251_1236746058_1358286593" from="1358286593" to="1358286597" numLanes="1" speed="8.33" />
	<edge id="121293147_410079251_1236746058_1358286597" from="1358286597" to="1358286612" numLanes="1" speed="8.33" />
	<edge id="121293147_410079251_1236746058_1358286612" from="1358286612" to="1358286615" numLanes="1" speed="8.33" />
	<edge id="121293147_410079251_1236746058_1358286615" from="1358286615" to="1358286614" numLanes="1" speed="8.33" />
	<edge id="121293147_410079251_1236746058_1358286614" from="1358286614" to="1358286611" numLanes="1" speed="8.33" />
	<edge id="121293147_410079251_1236746058_1358286611" from="1358286611" to="1358286600" numLanes="1" speed="8.33" />
	<edge id="121293147_410079251_1236746058_1358286600" from="1358286600" to="1358286599" numLanes="1" speed="8.33" />
	<edge id="121293147_410079251_1236746058_1358286599" from="1358286599" to="1358286602" numLanes="1" speed="8.33" />
	<edge id="121293147_410079251_1236746058_1358286602" from="1358286602" to="1358286604" numLanes="1" speed="8.33" />
	<edge id="121293147_410079251_1236746058_1358286604" from="1358286604" to="1358286613" numLanes="1" speed="8.33" />
	<edge id="121293147_410079251_1236746058_1358286613" from="1358286613" to="1358286616" numLanes="1" speed="8.33" />
	<edge id="121293147_410079251_1236746058_1358286616" from="1358286616" to="1358286617" numLanes="1" speed="8.33" />
	<edge id="121293147_410079251_1236746058_1358286617" from="1358286617" to="1236746058" numLanes="1" speed="8.33" />
	<edge id="107425217_410079176_1234666281_410079176" from="410079176" to="1234666265" numLanes="1" speed="8.33" />
	<edge id="107425217_410079176_1234666281_1234666265" from="1234666265" to="1234666319" numLanes="1" speed="8.33" />
	<edge id="107425217_410079176_1234666281_1234666319" from="1234666319" to="1234666218" numLanes="1" speed="8.33" />
	<edge id="107425217_410079176_1234666281_1234666218" from="1234666218" to="1234666489" numLanes="1" speed="8.33" />
	<edge id="107425217_410079176_1234666281_1234666489" from="1234666489" to="1234666342" numLanes="1" speed="8.33" />
	<edge id="107425217_410079176_1234666281_1234666342" from="1234666342" to="1234666397" numLanes="1" speed="8.33" />
	<edge id="107425217_410079176_1234666281_1234666397" from="1234666397" to="1234666291" numLanes="1" speed="8.33" />
	<edge id="107425217_410079176_1234666281_1234666291" from="1234666291" to="1234666620" numLanes="1" speed="8.33" />
	<edge id="107425217_410079176_1234666281_1234666620" from="1234666620" to="1234666440" numLanes="1" speed="8.33" />
	<edge id="107425217_410079176_1234666281_1234666440" from="1234666440" to="1234666529" numLanes="1" speed="8.33" />
	<edge id="107425217_410079176_1234666281_1234666529" from="1234666529" to="1234666369" numLanes="1" speed="8.33" />
	<edge id="107425217_410079176_1234666281_1234666369" from="1234666369" to="1234666261" numLanes="1" speed="8.33" />
	<edge id="107425217_410079176_1234666281_1234666261" from="1234666261" to="1234666570" numLanes="1" speed="8.33" />
	<edge id="107425217_410079176_1234666281_1234666570" from="1234666570" to="1234666275" numLanes="1" speed="8.33" />
	<edge id="107425217_410079176_1234666281_1234666275" from="1234666275" to="1234666586" numLanes="1" speed="8.33" />
	<edge id="107425217_410079176_1234666281_1234666586" from="1234666586" to="1234666414" numLanes="1" speed="8.33" />
	<edge id="107425217_410079176_1234666281_1234666414" from="1234666414" to="1234666303" numLanes="1" speed="8.33" />
	<edge id="107425217_410079176_1234666281_1234666303" from="1234666303" to="1234666349" numLanes="1" speed="8.33" />
	<edge id="107425217_410079176_1234666281_1234666349" from="1234666349" to="1234666244" numLanes="1" speed="8.33" />
	<edge id="107425217_410079176_1234666281_1234666244" from="1234666244" to="1234666543" numLanes="1" speed="8.33" />
	<edge id="107425217_410079176_1234666281_1234666543" from="1234666543" to="1234666378" numLanes="1" speed="8.33" />
	<edge id="107425217_410079176_1234666281_1234666378" from="1234666378" to="1234666449" numLanes="1" speed="8.33" />
	<edge id="107425217_410079176_1234666281_1234666449" from="1234666449" to="1234666324" numLanes="1" speed="8.33" />
	<edge id="107425217_410079176_1234666281_1234666324" from="1234666324" to="1234666224" numLanes="1" speed="8.33" />
	<edge id="107425217_410079176_1234666281_1234666224" from="1234666224" to="1234666504" numLanes="1" speed="8.33" />
	<edge id="107425217_410079176_1234666281_1234666504" from="1234666504" to="1234666577" numLanes="1" speed="8.33" />
	<edge id="107425217_410079176_1234666281_1234666577" from="1234666577" to="1234666402" numLanes="1" speed="8.33" />
	<edge id="107425217_410079176_1234666281_1234666402" from="1234666402" to="1234666297" numLanes="1" speed="8.33" />
	<edge id="107425217_410079176_1234666281_1234666297" from="1234666297" to="1234666629" numLanes="1" speed="8.33" />
	<edge id="107425217_410079176_1234666281_1234666629" from="1234666629" to="1234666309" numLanes="1" speed="8.33" />
	<edge id="107425217_410079176_1234666281_1234666309" from="1234666309" to="1234666205" numLanes="1" speed="8.33" />
	<edge id="107425217_410079176_1234666281_1234666205" from="1234666205" to="1234666469" numLanes="1" speed="8.33" />
	<edge id="107425217_410079176_1234666281_1234666469" from="1234666469" to="1234666333" numLanes="1" speed="8.33" />
	<edge id="107425217_410079176_1234666281_1234666333" from="1234666333" to="1234666281" numLanes="1" speed="8.33" />
	<edge id="107641109_1236745837_1236745779_1236745837" from="1236745837" to="1236745978" numLanes="1" speed="8.33" />
	<edge id="107641109_1236745837_1236745779_1236745978" from="1236745978" to="1236745880" numLanes="1" speed="8.33" />
	<edge id="107641109_1236745837_1236745779_1236745880" from="1236745880" to="1236745988" numLanes="1" speed="8.33" />
	<edge id="107641109_1236745837_1236745779_1236745988" from="1236745988" to="1236746019" numLanes="1" speed="8.33" />
	<edge id="107641109_1236745837_1236745779_1236746019" from="1236746019" to="1236745747" numLanes="1" speed="8.33" />
	<edge id="107641109_1236745837_1236745779_1236745747" from="1236745747" to="1236746015" numLanes="1" speed="8.33" />
	<edge id="107641109_1236745837_1236745779_1236746015" from="1236746015" to="1236746044" numLanes="1" speed="8.33" />
	<edge id="107641109_1236745837_1236745779_1236746044" from="1236746044" to="1236745779" numLanes="1" speed="8.33" />
	<edge id="107425264_1214670166_1214670138_1214670166" from="1214670166" to="1214670175" numLanes="1" speed="8.33" />
	<edge id="107425264_1214670166_1214670138_1214670175" from="1214670175" to="1214670177" numLanes="1" speed="8.33" />
	<edge id="107425264_1214670166_1214670138_1214670177" from="1214670177" to="1214670180" numLanes="1" speed="8.33" />
	<edge id="107425264_1214670166_1214670138_1214670180" from="1214670180" to="1359371312" numLanes="1" speed="8.33" />
	<edge id="107425264_1214670166_1214670138_1359371312" from="1359371312" to="1214670138" numLanes="1" speed="8.33" />
	<edge id="567962204_1236745958_5465550779_1236745958" from="1236745958" to="5465550778" numLanes="1" speed="8.33" />
	<edge id="567962204_1236745958_5465550779_5465550778" from="5465550778" to="5465550779" numLanes="1" speed="8.33" />
	<edge id="727947298_410079181_410079176_410079181" from="410079181" to="1214767339" numLanes="1" speed="8.33" />
	<edge id="727947298_410079181_410079176_1214767339" from="1214767339" to="410079180" numLanes="1" speed="8.33" />
	<edge id="727947298_410079181_410079176_410079180" from="410079180" to="410079179" numLanes="1" speed="8.33" />
	<edge id="727947298_410079181_410079176_410079179" from="410079179" to="1214767478" numLanes="1" speed="8.33" />
	<edge id="727947298_410079181_410079176_1214767478" from="1214767478" to="410079178" numLanes="1" speed="8.33" />
	<edge id="727947298_410079181_410079176_410079178" from="410079178" to="1214767313" numLanes="1" speed="8.33" />
	<edge id="727947298_410079181_410079176_1214767313" from="1214767313" to="1214767447" numLanes="1" speed="8.33" />
	<edge id="727947298_410079181_410079176_1214767447" from="1214767447" to="410079177" numLanes="1" speed="8.33" />
	<edge id="727947298_410079181_410079176_410079177" from="410079177" to="410079176" numLanes="1" speed="8.33" />
	<edge id="727945215_1214711935_1214670166_1214711935" from="1214711935" to="1214711942" numLanes="1" speed="8.33" />
	<edge id="727945215_1214711935_1214670166_1214711942" from="1214711942" to="1214711939" numLanes="1" speed="8.33" />
	<edge id="727945215_1214711935_1214670166_1214711939" from="1214711939" to="1214711957" numLanes="1" speed="8.33" />
	<edge id="727945215_1214711935_1214670166_1214711957" from="1214711957" to="1214711934" numLanes="1" speed="8.33" />
	<edge id="727945215_1214711935_1214670166_1214711934" from="1214711934" to="1214767233" numLanes="1" speed="8.33" />
	<edge id="727945215_1214711935_1214670166_1214767233" from="1214767233" to="1214711940" numLanes="1" speed="8.33" />
	<edge id="727945215_1214711935_1214670166_1214711940" from="1214711940" to="1214711948" numLanes="1" speed="8.33" />
	<edge id="727945215_1214711935_1214670166_1214711948" from="1214711948" to="1214670166" numLanes="1" speed="8.33" />
	<edge id="34946721_410079167_5750327847_410079167" from="410079167" to="1214767303" numLanes="1" speed="13.89" />
	<edge id="34946721_410079167_5750327847_1214767303" from="1214767303" to="410079166" numLanes="1" speed="13.89" />
	<edge id="34946721_410079167_5750327847_410079166" from="410079166" to="5750327847" numLanes="1" speed="13.89" />
	<edge id="34942567_410079245_410079165_410079245" from="410079245" to="410079165" numLanes="1" speed="13.89" />
	<edge id="105462427_1214711950_410079268_1214711950" from="1214711950" to="1214711952" numLanes="1" speed="8.33" />
	<edge id="105462427_1214711950_410079268_1214711952" from="1214711952" to="1214711956" numLanes="1" speed="8.33" />
	<edge id="105462427_1214711950_410079268_1214711956" from="1214711956" to="1214711953" numLanes="1" speed="8.33" />
	<edge id="105462427_1214711950_410079268_1214711953" from="1214711953" to="1214711943" numLanes="1" speed="8.33" />
	<edge id="105462427_1214711950_410079268_1214711943" from="1214711943" to="1214711933" numLanes="1" speed="8.33" />
	<edge id="105462427_1214711950_410079268_1214711933" from="1214711933" to="1214711947" numLanes="1" speed="8.33" />
	<edge id="105462427_1214711950_410079268_1214711947" from="1214711947" to="1214711958" numLanes="1" speed="8.33" />
	<edge id="105462427_1214711950_410079268_1214711958" from="1214711958" to="1359371319" numLanes="1" speed="8.33" />
	<edge id="105462427_1214711950_410079268_1359371319" from="1359371319" to="410079268" numLanes="1" speed="8.33" />
	<edge id="121293147_1236746058_410079251_1236746058" from="1236746058" to="1358286617" numLanes="1" speed="8.33" />
	<edge id="121293147_1236746058_410079251_1358286617" from="1358286617" to="1358286616" numLanes="1" speed="8.33" />
	<edge id="121293147_1236746058_410079251_1358286616" from="1358286616" to="1358286613" numLanes="1" speed="8.33" />
	<edge id="121293147_1236746058_410079251_1358286613" from="1358286613" to="1358286604" numLanes="1" speed="8.33" />
	<edge id="121293147_1236746058_410079251_1358286604" from="1358286604" to="1358286602" numLanes="1" speed="8.33" />
	<edge id="121293147_1236746058_410079251_1358286602" from="1358286602" to="1358286599" numLanes="1" speed="8.33" />
	<edge id="121293147_1236746058_410079251_1358286599" from="1358286599" to="1358286600" numLanes="1" speed="8.33" />
	<edge id="121293147_1236746058_410079251_1358286600" from="1358286600" to="1358286611" numLanes="1" speed="8.33" />
	<edge id="121293147_1236746058_410079251_1358286611" from="1358286611" to="1358286614" numLanes="1" speed="8.33" />
	<edge id="121293147_1236746058_410079251_1358286614" from="1358286614" to="1358286615" numLanes="1" speed="8.33" />
	<edge id="121293147_1236746058_410079251_1358286615" from="1358286615" to="1358286612" numLanes="1" speed="8.33" />
	<edge id="121293147_1236746058_410079251_1358286612" from="1358286612" to="1358286597" numLanes="1" speed="8.33" />
	<edge id="121293147_1236746058_410079251_1358286597" from="1358286597" to="1358286593" numLanes="1" speed="8.33" />
	<edge id="121293147_1236746058_410079251_1358286593" from="1358286593" to="1358286591" numLanes="1" speed="8.33" />
	<edge id="121293147_1236746058_410079251_1358286591" from="1358286591" to="1358286587" numLanes="1" speed="8.33" />
	<edge id="121293147_1236746058_410079251_1358286587" from="1358286587" to="410079251" numLanes="1" speed="8.33" />
	<edge id="107641109_1236745779_1236745837_1236745779" from="1236745779" to="1236746044" numLanes="1" speed="8.33" />
	<edge id="107641109_1236745779_1236745837_1236746044" from="1236746044" to="1236746015" numLanes="1" speed="8.33" />
	<edge id="107641109_1236745779_1236745837_1236746015" from="1236746015" to="1236745747" numLanes="1" speed="8.33" />
	<edge id="107641109_1236745779_1236745837_1236745747" from="1236745747" to="1236746019" numLanes="1" speed="8.33" />
	<edge id="107641109_1236745779_1236745837_1236746019" from="1236746019" to="1236745988" numLanes="1" speed="8.33" />
	<edge id="107641109_1236745779_1236745837_1236745988" from="1236745988" to="1236745880" numLanes="1" speed="8.33" />
	<edge id="107641109_1236745779_1236745837_1236745880" from="1236745880" to="1236745978" numLanes="1" speed="8.33" />
	<edge id="107641109_1236745779_1236745837_1236745978" from="1236745978" to="1236745837" numLanes="1" speed="8.33" />
	<edge id="727948730_1358286589_1214767333_1358286589" from="1358286589" to="6821685992" numLanes="1" speed="8.33" />
	<edge id="727948730_1358286589_1214767333_6821685992" from="6821685992" to="6821685991" numLanes="1" speed="8.33" />
	<edge id="727948730_1358286589_1214767333_6821685991" from="6821685991" to="6821685990" numLanes="1" speed="8.33" />
	<edge id="727948730_1358286589_1214767333_6821685990" from="6821685990" to="6821685989" numLanes="1" speed="8.33" />
	<edge id="727948730_1358286589_1214767333_6821685989" from="6821685989" to="6821685988" numLanes="1" speed="8.33" />
	<edge id="727948730_1358286589_1214767333_6821685988" from="6821685988" to="6821685987" numLanes="1" speed="8.33" />
	<edge id="727948730_1358286589_1214767333_6821685987" from="6821685987" to="6821685986" numLanes="1" speed="8.33" />
	<edge id="727948730_1358286589_1214767333_6821685986" from="6821685986" to="6821685985" numLanes="1" speed="8.33" />
	<edge id="727948730_1358286589_1214767333_6821685985" from="6821685985" to="6821666884" numLanes="1" speed="8.33" />
	<edge id="727948730_1358286589_1214767333_6821666884" from="6821666884" to="6821666883" numLanes="1" speed="8.33" />
	<edge id="727948730_1358286589_1214767333_6821666883" from="6821666883" to="6821666882" numLanes="1" speed="8.33" />
	<edge id="727948730_1358286589_1214767333_6821666882" from="6821666882" to="6821666881" numLanes="1" speed="8.33" />
	<edge id="727948730_1358286589_1214767333_6821666881" from="6821666881" to="6821666880" numLanes="1" speed="8.33" />
	<edge id="727948730_1358286589_1214767333_6821666880" from="6821666880" to="6821666879" numLanes="1" speed="8.33" />
	<edge id="727948730_1358286589_1214767333_6821666879" from="6821666879" to="6821666878" numLanes="1" speed="8.33" />
	<edge id="727948730_1358286589_1214767333_6821666878" from="6821666878" to="6821666877" numLanes="1" speed="8.33" />
	<edge id="727948730_1358286589_1214767333_6821666877" from="6821666877" to="6821666876" numLanes="1" speed="8.33" />
	<edge id="727948730_1358286589_1214767333_6821666876" from="6821666876" to="6821666875" numLanes="1" speed="8.33" />
	<edge id="727948730_1358286589_1214767333_6821666875" from="6821666875" to="6821666874" numLanes="1" speed="8.33" />
	<edge id="727948730_1358286589_1214767333_6821666874" from="6821666874" to="6821666873" numLanes="1" speed="8.33" />
	<edge id="727948730_1358286589_1214767333_6821666873" from="6821666873" to="6821666872" numLanes="1" speed="8.33" />
	<edge id="727948730_1358286589_1214767333_6821666872" from="6821666872" to="6821666871" numLanes="1" speed="8.33" />
	<edge id="727948730_1358286589_1214767333_6821666871" from="6821666871" to="6821666870" numLanes="1" speed="8.33" />
	<edge id="727948730_1358286589_1214767333_6821666870" from="6821666870" to="6821666869" numLanes="1" speed="8.33" />
	<edge id="727948730_1358286589_1214767333_6821666869" from="6821666869" to="6821666868" numLanes="1" speed="8.33" />
	<edge id="727948730_1358286589_1214767333_6821666868" from="6821666868" to="6821666867" numLanes="1" speed="8.33" />
	<edge id="727948730_1358286589_1214767333_6821666867" from="6821666867" to="6821666866" numLanes="1" speed="8.33" />
	<edge id="727948730_1358286589_1214767333_6821666866" from="6821666866" to="6821666865" numLanes="1" speed="8.33" />
	<edge id="727948730_1358286589_1214767333_6821666865" from="6821666865" to="1214767333" numLanes="1" speed="8.33" />
	<edge id="107641107_1236745861_1236746086_1236745861" from="1236745861" to="1236745989" numLanes="1" speed="8.33" />
	<edge id="107641107_1236745861_1236746086_1236745989" from="1236745989" to="1236746020" numLanes="1" speed="8.33" />
	<edge id="107641107_1236745861_1236746086_1236746020" from="1236746020" to="1236745748" numLanes="1" speed="8.33" />
	<edge id="107641107_1236745861_1236746086_1236745748" from="1236745748" to="1236745965" numLanes="1" speed="8.33" />
	<edge id="107641107_1236745861_1236746086_1236745965" from="1236745965" to="1236746065" numLanes="1" speed="8.33" />
	<edge id="107641107_1236745861_1236746086_1236746065" from="1236746065" to="1236746086" numLanes="1" speed="8.33" />
	<edge id="105462427_410079268_1214711950_410079268" from="410079268" to="1359371319" numLanes="1" speed="8.33" />
	<edge id="105462427_410079268_1214711950_1359371319" from="1359371319" to="1214711958" numLanes="1" speed="8.33" />
	<edge id="105462427_410079268_1214711950_1214711958" from="1214711958" to="1214711947" numLanes="1" speed="8.33" />
	<edge id="105462427_410079268_1214711950_1214711947" from="1214711947" to="1214711933" numLanes="1" speed="8.33" />
	<edge id="105462427_410079268_1214711950_1214711933" from="1214711933" to="1214711943" numLanes="1" speed="8.33" />
	<edge id="105462427_410079268_1214711950_1214711943" from="1214711943" to="1214711953" numLanes="1" speed="8.33" />
	<edge id="105462427_410079268_1214711950_1214711953" from="1214711953" to="1214711956" numLanes="1" speed="8.33" />
	<edge id="105462427_410079268_1214711950_1214711956" from="1214711956" to="1214711952" numLanes="1" speed="8.33" />
	<edge id="105462427_410079268_1214711950_1214711952" from="1214711952" to="1214711950" numLanes="1" speed="8.33" />
	<edge id="34946691_1236745958_410079251_1236745958" from="1236745958" to="410079254" numLanes="1" speed="13.89" />
	<edge id="34946691_1236745958_410079251_410079254" from="410079254" to="410079253" numLanes="1" speed="13.89" />
	<edge id="34946691_1236745958_410079251_410079253" from="410079253" to="410079252" numLanes="1" speed="13.89" />
	<edge id="34946691_1236745958_410079251_410079252" from="410079252" to="410079251" numLanes="1" speed="13.89" />
	<edge id="727946066_1234666280_1214767333_1234666280" from="1234666280" to="1214767471" numLanes="1" speed="8.33" />
	<edge id="727946066_1234666280_1214767333_1214767471" from="1214767471" to="1214767333" numLanes="1" speed="8.33" />
	<edge id="34942567_1236746086_410079245_1236746086" from="1236746086" to="410079247" numLanes="1" speed="13.89" />
	<edge id="34942567_1236746086_410079245_410079247" from="410079247" to="410079246" numLanes="1" speed="13.89" />
	<edge id="34942567_1236746086_410079245_410079246" from="410079246" to="410079245" numLanes="1" speed="13.89" />
	<edge id="34942567_1236746086_410079248_1236746086" from="1236746086" to="410079248" numLanes="1" speed="13.89" />
	<edge id="107425187_1234666359_1234666281_1234666359" from="1234666359" to="1234666514" numLanes="1" speed="4.17" />
	<edge id="107425187_1234666359_1234666281_1234666514" from="1234666514" to="1234666360" numLanes="1" speed="4.17" />
	<edge id="107425187_1234666359_1234666281_1234666360" from="1234666360" to="1234666420" numLanes="1" speed="4.17" />
	<edge id="107425187_1234666359_1234666281_1234666420" from="1234666420" to="1234666307" numLanes="1" speed="4.17" />
	<edge id="107425187_1234666359_1234666281_1234666307" from="1234666307" to="1234666203" numLanes="1" speed="4.17" />
	<edge id="107425187_1234666359_1234666281_1234666203" from="1234666203" to="1234666467" numLanes="1" speed="4.17" />
	<edge id="107425187_1234666359_1234666281_1234666467" from="1234666467" to="1234666549" numLanes="1" speed="4.17" />
	<edge id="107425187_1234666359_1234666281_1234666549" from="1234666549" to="1234666382" numLanes="1" speed="4.17" />
	<edge id="107425187_1234666359_1234666281_1234666382" from="1234666382" to="1234666281" numLanes="1" speed="4.17" />
	<edge id="34946691_1214670138_410079268_1214670138" from="1214670138" to="410079262" numLanes="1" speed="13.89" />
	<edge id="34946691_1214670138_410079268_410079262" from="410079262" to="410079263" numLanes="1" speed="13.89" />
	<edge id="34946691_1214670138_410079268_410079263" from="410079263" to="410079264" numLanes="1" speed="13.89" />
	<edge id="34946691_1214670138_410079268_410079264" from="410079264" to="410079265" numLanes="1" speed="13.89" />
	<edge id="34946691_1214670138_410079268_410079265" from="410079265" to="410079266" numLanes="1" speed="13.89" />
	<edge id="34946691_1214670138_410079268_410079266" from="410079266" to="410079267" numLanes="1" speed="13.89" />
	<edge id="34946691_1214670138_410079268_410079267" from="410079267" to="410079268" numLanes="1" speed="13.89" />
	<edge id="107641100_1236745958_1236745837_1236745958" from="1236745958" to="1236745837" numLanes="1" speed="8.33" />
	<edge id="606504146_5750327849_5750327848_5750327849" from="5750327849" to="5750327848" numLanes="1" speed="8.33" />
	<edge id="606504146_5750327849_5750327847_5750327849" from="5750327849" to="5750327856" numLanes="1" speed="8.33" />
	<edge id="606504146_5750327849_5750327847_5750327856" from="5750327856" to="5750327847" numLanes="1" speed="8.33" />
	<edge id="34946691_410079251_1236745958_410079251" from="410079251" to="410079252" numLanes="1" speed="13.89" />
	<edge id="34946691_410079251_1236745958_410079252" from="410079252" to="410079253" numLanes="1" speed="13.89" />
	<edge id="34946691_410079251_1236745958_410079253" from="410079253" to="410079254" numLanes="1" speed="13.89" />
	<edge id="34946691_410079251_1236745958_410079254" from="410079254" to="1236745958" numLanes="1" speed="13.89" />
	<edge id="121293144_410079248_1358286589_410079248" from="410079248" to="1358286565" numLanes="1" speed="8.33" />
	<edge id="121293144_410079248_1358286589_1358286565" from="1358286565" to="1358286568" numLanes="1" speed="8.33" />
	<edge id="121293144_410079248_1358286589_1358286568" from="1358286568" to="1358286571" numLanes="1" speed="8.33" />