<nodes>
	<node id="1234666448" x="553811.1341" y="4603066.2222" z="0.0000" type="priority" />
	<node id="1234666207" x="553870.7654" y="4603096.5792" z="0.0000" type="priority" />
	<node id="1234666449" x="554052.2727" y="4602645.0246" z="0.0000" type="priority" />
	<node id="6821666880" x="553352.8748" y="4602852.4687" z="0.0000" type="priority" />
	<node id="1234666323" x="553801.9057" y="4603072.8371" z="0.0000" type="priority" />
	<node id="6821666883" x="553344.1170" y="4602839.4913" z="0.0000" type="priority" />
	<node id="1234666203" x="554255.8736" y="4602633.5883" z="0.0000" type="priority" />
	<node id="1234666324" x="554060.9359" y="4602638.2726" z="0.0000" type="priority" />
	<node id="6821666884" x="553339.6996" y="4602838.1928" z="0.0000" type="priority" />
	<node id="1234666204" x="554019.9429" y="4602482.4927" z="0.0000" type="priority" />
	<node id="6821666881" x="553350.3955" y="4602846.1440" z="0.0000" type="priority" />
	<node id="1234666205" x="554158.4592" y="4602613.7247" z="0.0000" type="priority" />
	<node id="6821666882" x="553348.2107" y="4602841.7200" z="0.0000" type="priority" />
	<node id="1214767267" x="554276.0335" y="4602801.6254" z="0.0000" type="priority" />
	<node id="1236745777" x="553372.1940" y="4602410.2782" z="0.0000" type="priority" />
	<node id="1236745897" x="553247.9061" y="4602580.3845" z="0.0000" type="priority" />
	<node id="1236745779" x="552938.8364" y="4602636.2721" z="0.0000" type="priority" />
	<node id="1214767383" x="553717.0925" y="4603072.0592" z="0.0000" type="priority" />
	<node id="1236746077" x="552994.6698" y="4602798.4277" z="0.0000" type="priority" />
	<node id="1234666330" x="554281.0572" y="4602789.9499" z="0.0000" type="priority" />
	<node id="6821666876" x="553358.7244" y="4602874.2513" z="0.0000" type="priority" />
	<node id="1234666331" x="554092.0729" y="4602547.6858" z="0.0000" type="priority" />
	<node id="6821666877" x="553354.9942" y="4602865.7189" z="0.0000" type="priority" />
	<node id="6821666874" x="553358.6239" y="4602887.7959" z="0.0000" type="priority" />
	<node id="1234666333" x="554186.3125" y="4602608.4384" z="0.0000" type="priority" />
	<node id="6821666875" x="553358.9758" y="4602883.0687" z="0.0000" type="priority" />
	<node id="1234666570" x="553991.2741" y="4602714.2811" z="0.0000" type="priority" />
	<node id="6821666878" x="553353.4430" y="4602861.2996" z="0.0000" type="priority" />
	<node id="6821666879" x="553353.4780" y="4602856.5701" z="0.0000" type="priority" />
	<node id="1234666218" x="553998.8980" y="4602786.0289" z="0.0000" type="priority" />
	<node id="6821666872" x="553354.1342" y="4602896.2673" z="0.0000" type="priority" />
	<node id="1234666335" x="553924.2882" y="4603023.0910" z="0.0000" type="priority" />
	<node id="1234666577" x="554082.2107" y="4602626.3414" z="0.0000" type="priority" />
	<node id="6821666873" x="553357.0002" y="4602893.1465" z="0.0000" type="priority" />
	<node id="6821666870" x="553352.0606" y="4602919.5677" z="0.0000" type="priority" />
	<node id="6821666871" x="553353.1441" y="4602901.6226" z="0.0000" type="priority" />
	<node id="1236745768" x="553022.2759" y="4602833.2605" z="0.0000" type="priority" />
	<node id="1214767494" x="553360.9598" y="4602943.8266" z="0.0000" type="priority" />
	<node id="1214767371" x="553554.8525" y="4602661.5357" z="0.0000" type="priority" />
	<node id="1236746065" x="553273.5371" y="4602707.4231" z="0.0000" type="priority" />
	<node id="1214767369" x="553760.1641" y="4602792.5577" z="0.0000" type="priority" />
	<node id="1236745893" x="553385.8868" y="4602360.4840" z="0.0000" type="priority" />
	<node id="6821666865" x="553347.3256" y="4602961.1236" z="0.0000" type="priority" />
	<node id="1234666342" x="553992.6456" y="4602767.0628" z="0.0000" type="priority" />
	<node id="6821666866" x="553347.4027" y="4602950.7208" z="0.0000" type="priority" />
	<node id="1234666586" x="554005.2491" y="4602705.1484" z="0.0000" type="priority" />
	<node id="6821666869" x="553350.4229" y="4602926.8057" z="0.0000" type="priority" />
	<node id="6821666867" x="553347.4775" y="4602940.6401" z="0.0000" type="priority" />
	<node id="6821666868" x="553349.1291" y="4602931.5148" z="0.0000" type="priority" />
	<node id="1234666305" x="554297.6558" y="4602739.2022" z="0.0000" type="priority" />
	<node id="1234666307" x="554267.6876" y="4602647.9667" z="0.0000" type="priority" />
	<node id="1234666549" x="554231.7556" y="4602612.2891" z="0.0000" type="priority" />
	<node id="1234666308" x="554013.8317" y="4602502.4651" z="0.0000" type="priority" />
	<node id="1234666429" x="553900.7743" y="4603074.8093" z="0.0000" type="priority" />
	<node id="1234666543" x="554031.6317" y="4602660.2692" z="0.0000" type="priority" />
	<node id="1234666423" x="554013.0609" y="4602517.4148" z="0.0000" type="priority" />
	<node id="1234666303" x="554017.0249" y="4602694.6780" z="0.0000" type="priority" />
	<node id="1234666545" x="553943.7600" y="4602945.6619" z="0.0000" type="priority" />
	<node id="1214767289" x="554286.8303" y="4602849.1379" z="0.0000" type="priority" />
	<node id="1214767288" x="552995.6177" y="4602485.0931" z="0.0000" type="priority" />
	<node id="1214670166" x="552777.4324" y="4602786.5948" z="0.0000" type="priority" />
	<node id="1234666309" x="554141.2402" y="4602614.0281" z="0.0000" type="priority" />
	<node id="1236746098" x="553307.1285" y="4602630.7963" z="0.0000" type="priority" />
	<node id="1234666551" x="554041.9594" y="4602460.6745" z="0.0000" type="priority" />
	<node id="1234666311" x="553880.6840" y="4603092.4233" z="0.0000" type="priority" />
	<node id="1236746093" x="553357.5473" y="4602753.0004" z="0.0000" type="priority" />
	<node id="1234666558" x="553861.6280" y="4603091.0482" z="0.0000" type="priority" />
	<node id="1234666559" x="554155.4109" y="4602578.9500" z="0.0000" type="priority" />
	<node id="1214767390" x="554251.0794" y="4602808.3876" z="0.0000" type="priority" />
	<node id="1234666319" x="553999.3002" y="4602791.3057" z="0.0000" type="priority" />
	<node id="1214767278" x="553382.8701" y="4602870.6554" z="0.0000" type="priority" />
	<node id="1214670175" x="552793.6282" y="4602685.8785" z="0.0000" type="priority" />
	<node id="1937769696" x="552986.5702" y="4602492.0656" z="0.0000" type="priority" />
	<node id="1214670177" x="552794.4016" y="4602649.7670" z="0.0000" type="priority" />
	<node id="1236746086" x="553281.0824" y="4602720.9355" z="0.0000" type="priority" />
	<node id="1214670180" x="552797.2405" y="4602634.4216" z="0.0000" type="priority" />
	<node id="1234666440" x="553984.7015" y="4602736.8814" z="0.0000" type="priority" />
	<node id="1234666563" x="553940.7181" y="4602975.5388" z="0.0000" type="priority" />
	<node id="1236746082" x="553355.4191" y="4602517.0956" z="0.0000" type="priority" />
	<node id="1358286612" x="553159.4749" y="4602832.7625" z="0.0000" type="priority" />
	<node id="1358286613" x="553092.7907" y="4602835.5679" z="0.0000" type="priority" />
	<node id="410079226" x="553781.7322" y="4603084.8882" z="0.0000" type="priority" />
	<node id="1358286614" x="553145.1202" y="4602837.0421" z="0.0000" type="priority" />
	<node id="410079225" x="553787.9559" y="4603085.4122" z="0.0000" type="priority" />
	<node id="1358286615" x="553154.4680" y="4602839.0319" z="0.0000" type="priority" />
	<node id="1234666247" x="553946.0216" y="4602927.5591" z="0.0000" type="priority" />
	<node id="1234666489" x="553995.6642" y="4602775.8789" z="0.0000" type="priority" />
	<node id="1359371339" x="552914.1219" y="4602883.8592" z="0.0000" type="priority" />
	<node id="1234666369" x="553987.8836" y="4602725.0253" z="0.0000" type="priority" />
	<node id="1234666249" x="554030.6317" y="4602470.2600" z="0.0000" type="priority" />
	<node id="1358286611" x="553137.9974" y="4602831.7823" z="0.0000" type="priority" />
	<node id="1359371337" x="552906.8747" y="4602878.4988" z="0.0000" type="priority" />
	<node id="1236745733" x="553040.3839" y="4602846.8616" z="0.0000" type="priority" />
	<node id="410079228" x="553742.6054" y="4603081.8203" z="0.0000" type="priority" />
	<node id="410079227" x="553771.2134" y="4603083.4662" z="0.0000" type="priority" />
	<node id="1236745979" x="553424.2657" y="4602331.1910" z="0.0000" type="priority" />
	<node id="410079229" x="553728.3343" y="4603076.0180" z="0.0000" type="priority" />
	<node id="1236745978" x="552973.4844" y="4602752.0844" z="0.0000" type="priority" />
	<node id="1236746030" x="553371.5111" y="4602389.9329" z="0.0000" type="priority" />
	<node id="1236745861" x="553293.5011" y="4602624.6000" z="0.0000" type="priority" />
	<node id="1236746037" x="553330.3300" y="4602547.6976" z="0.0000" type="priority" />
	<node id="1234666253" x="554305.5405" y="4602715.2019" z="0.0000" type="priority" />
	<node id="1359371336" x="552974.5732" y="4602832.9648" z="0.0000" type="priority" />
	<node id="1234666255" x="554168.5871" y="4602587.4096" z="0.0000" type="priority" />
	<node id="1359371334" x="552950.1451" y="4602816.0199" z="0.0000" type="priority" />
	<node id="1359371333" x="553527.5611" y="4602778.5778" z="0.0000" type="priority" />
	<node id="1358286616" x="553086.5195" y="4602843.7154" z="0.0000" type="priority" />
	<node id="1358286617" x="553081.5854" y="4602851.4288" z="0.0000" type="priority" />
	<node id="1214767292" x="554322.5545" y="4602892.2642" z="0.0000" type="priority" />
	<node id="1358286602" x="553106.3526" y="4602826.8856" z="0.0000" type="priority" />
	<node id="1358286604" x="553099.4362" y="4602830.9426" z="0.0000" type="priority" />
	<node id="1234666378" x="554042.7390" y="4602651.1150" z="0.0000" type="priority" />
	<node id="1234666259" x="553942.3719" y="4602966.2360" z="0.0000" type="priority" />
	<node id="1358286600" x="553126.7438" y="4602825.9369" z="0.0000" type="priority" />
	<node id="1236746019" x="552936.5837" y="4602705.6366" z="0.0000" type="priority" />
	<node id="1236746018" x="552840.0802" y="4602589.7810" z="0.0000" type="priority" />
	<node id="1236745965" x="553270.8287" y="4602692.6253" z="0.0000" type="priority" />
	<node id="1236746020" x="553274.4196" y="4602660.2874" z="0.0000" type="priority" />
	<node id="1236745970" x="553303.5797" y="4602612.3950" z="0.0000" type="priority" />
	<node id="1234666265" x="553996.3648" y="4602800.2991" z="0.0000" type="priority" />
	<node id="1234666387" x="553857.0872" y="4603083.9862" z="0.0000" type="priority" />
	<node id="5750354936" x="553411.5638" y="4602354.1461" z="0.0000" type="priority" />
	<node id="1234666261" x="553988.5817" y="4602719.7568" z="0.0000" type="priority" />
	<node id="1234666382" x="554214.6177" y="4602601.8344" z="0.0000" type="priority" />
	<node id="1359371320" x="553395.5385" y="4602726.2137" z="0.0000" type="priority" />
	<node id="1234666383" x="554057.8928" y="4602455.0762" z="0.0000" type="priority" />
	<node id="410079246" x="553313.4014" y="4602711.4044" z="0.0000" type="priority" />
	<node id="1234666349" x="554020.6570" y="4602681.7373" z="0.0000" type="priority" />
	<node id="410079245" x="553364.4480" y="4602725.2281" z="0.0000" type="priority" />
	<node id="410079248" x="553267.2300" y="4602728.2607" z="0.0000" type="priority" />
	<node id="410079247" x="553293.8132" y="4602714.2015" z="0.0000" type="priority" />
	<node id="410079242" x="553560.4215" y="4602850.9236" z="0.0000" type="priority" />
	<node id="1234666224" x="554065.6306" y="4602630.3915" z="0.0000" type="priority" />
	<node id="1234666466" x="554282.9254" y="4602764.4276" z="0.0000" type="priority" />
	<node id="410079241" x="553576.0633" y="4602865.2960" z="0.0000" type="priority" />
	<node id="1234666467" x="554246.0322" y="4602621.8563" z="0.0000" type="priority" />
	<node id="410079244" x="553540.6908" y="4602810.1407" z="0.0000" type="priority" />
	<node id="1234666468" x="554134.1570" y="4602558.1279" z="0.0000" type="priority" />
	<node id="410079243" x="553546.9919" y="4602829.4287" z="0.0000" type="priority" />
	<node id="1234666469" x="554172.1483" y="4602612.7285" z="0.0000" type="priority" />
	<node id="410079249" x="553232.0127" y="4602748.6735" z="0.0000" type="priority" />
	<node id="1236745880" x="552963.6766" y="4602735.5246" z="0.0000" type="priority" />
	<node id="1236746058" x="553075.7302" y="4602859.6904" z="0.0000" type="priority" />
	<node id="1234666231" x="554057.2554" y="4602539.9521" z="0.0000" type="priority" />
	<node id="1234666595" x="554198.8135" y="4602589.1804" z="0.0000" type="priority" />
	<node id="410079240" x="553595.3156" y="4602873.9884" z="0.0000" type="priority" />
	<node id="1234666354" x="553947.8584" y="4602917.1918" z="0.0000" type="priority" />
	<node id="1234666234" x="553923.6325" y="4603040.5064" z="0.0000" type="priority" />
	<node id="1234666597" x="554020.6985" y="4602528.4638" z="0.0000" type="priority" />
	<node id="1234666470" x="553865.3127" y="4603094.4177" z="0.0000" type="priority" />
	<node id="1234666593" x="553973.9573" y="4602851.0706" z="0.0000" type="priority" />
	<node id="410079235" x="553650.8210" y="4602915.7487" z="0.0000" type="priority" />
	<node id="410079234" x="553643.5407" y="4602932.8037" z="0.0000" type="priority" />
	<node id="410079237" x="553641.0448" y="4602882.8893" z="0.0000" type="priority" />
	<node id="410079236" x="553650.9697" y="4602895.7981" z="0.0000" type="priority" />
	<node id="410079231" x="553651.8084" y="4602975.6443" z="0.0000" type="priority" />
	<node id="410079230" x="553705.9006" y="4603055.8101" z="0.0000" type="priority" />
	<node id="410079233" x="553641.2411" y="4602952.7494" z="0.0000" type="priority" />
	<node id="1214670138" x="552814.5146" y="4602597.0322" z="0.0000" type="priority" />
	<node id="410079232" x="553644.7218" y="4602965.6101" z="0.0000" type="priority" />
	<node id="1234666359" x="554320.2105" y="4602685.8458" z="0.0000" type="priority" />
	<node id="1236745864" x="552976.6807" y="4602767.5074" z="0.0000" type="priority" />
	<node id="410079239" x="553611.0657" y="4602872.6846" z="0.0000" type="priority" />
	<node id="1236745988" x="552951.6576" y="4602719.2151" z="0.0000" type="priority" />
	<node id="410079238" x="553628.2285" y="4602874.2336" z="0.0000" type="priority" />
	<node id="1236745748" x="553271.1313" y="4602675.3961" z="0.0000" type="priority" />
	<node id="1236745747" x="552927.8338" y="4602694.8581" z="0.0000" type="priority" />
	<node id="1236745989" x="553283.4176" y="4602637.4823" z="0.0000" type="priority" />
	<node id="1236746044" x="552914.7867" y="4602667.5493" z="0.0000" type="priority" />
	<node id="1234666244" x="554025.5916" y="4602670.7826" z="0.0000" type="priority" />
	<node id="1234666366" x="553910.5595" y="4603063.9796" z="0.0000" type="priority" />
	<node id="1234666487" x="554091.2860" y="4602476.0004" z="0.0000" type="priority" />
	<node id="1234666360" x="554276.3987" y="4602663.6429" z="0.0000" type="priority" />
	<node id="1234666362" x="554187.5603" y="4602588.8736" z="0.0000" type="priority" />
	<node id="410079268" x="552688.5088" y="4602661.2596" z="0.0000" type="priority" />
	<node id="410079267" x="552700.2866" y="4602657.0823" z="0.0000" type="priority" />
	<node id="1234666604" x="553833.3852" y="4603066.2110" z="0.0000" type="priority" />
	<node id="1236745818" x="553316.9985" y="4602583.7161" z="0.0000" type="priority" />
	<node id="1236745939" x="553367.8028" y="4602443.6539" z="0.0000" type="priority" />
	<node id="410079269" x="552679.7926" y="4602660.6184" z="0.0000" type="priority" />
	<node id="410079264" x="552769.8647" y="4602606.5861" z="0.0000" type="priority" />
	<node id="410079263" x="552785.8547" y="4602599.9085" z="0.0000" type="priority" />
	<node id="410079266" x="552726.1676" y="4602640.8731" z="0.0000" type="priority" />
	<node id="1937769701" x="553347.5813" y="4602768.0374" z="0.0000" type="priority" />
	<node id="410079265" x="552754.9814" y="4602614.7042" z="0.0000" type="priority" />
	<node id="1234666290" x="553927.3776" y="4603011.3341" z="0.0000" type="priority" />
	<node id="1234666291" x="553987.4572" y="4602751.8575" z="0.0000" type="priority" />
	<node id="1214767412" x="553381.5021" y="4602895.4821" z="0.0000" type="priority" />
	<node id="1234666297" x="554113.6104" y="4602619.5383" z="0.0000" type="priority" />
	<node id="410079262" x="552805.7437" y="4602597.0344" z="0.0000" type="priority" />
	<node id="1234666294" x="553827.9529" y="4603060.1970" z="0.0000" type="priority" />
	<node id="410079257" x="552919.5234" y="4602620.8971" z="0.0000" type="priority" />
	<node id="410079256" x="552952.9604" y="4602647.5231" z="0.0000" type="priority" />
	<node id="410079259" x="552876.2499" y="4602596.2974" z="0.0000" type="priority" />
	<node id="410079258" x="552896.0391" y="4602603.6152" z="0.0000" type="priority" />
	<node id="410079253" x="553141.7854" y="4602757.9881" z="0.0000" type="priority" />
	<node id="410079252" x="553177.4530" y="4602772.5075" z="0.0000" type="priority" />
	<node id="410079255" x="553017.0476" y="4602690.7738" z="0.0000" type="priority" />
	<node id="410079254" x="553088.3238" y="4602729.0818" z="0.0000" type="priority" />
	<node id="1236745801" x="553067.8809" y="4602860.2543" z="0.0000" type="priority" />
	<node id="1214767406" x="553529.5752" y="4602758.8743" z="0.0000" type="priority" />
	<node id="410118161" x="553554.4496" y="4602552.0706" z="0.0000" type="priority" />
	<node id="1214767403" x="553938.9754" y="4602816.5008" z="0.0000" type="priority" />
	<node id="410079251" x="553190.3227" y="4602774.0348" z="0.0000" type="priority" />
	<node id="410079250" x="553209.7157" y="4602764.9074" z="0.0000" type="priority" />
	<node id="410118162" x="553559.4824" y="4602582.7406" z="0.0000" type="priority" />
	<node id="410079169" x="553626.4791" y="4602757.6748" z="0.0000" type="priority" />
	<node id="1236745959" x="553363.3859" y="4602502.9986" z="0.0000" type="priority" />
	<node id="410079168" x="553601.6776" y="4602758.5671" z="0.0000" type="priority" />
	<node id="1236745837" x="552974.9497" y="4602759.1565" z="0.0000" type="priority" />
	<node id="1236745958" x="553035.8321" y="4602700.8713" z="0.0000" type="priority" />
	<node id="1359371319" x="552695.5030" y="4602671.6141" z="0.0000" type="priority" />
	<node id="410079165" x="553398.1888" y="4602734.2162" z="0.0000" type="priority" />
	<node id="1234666389" x="554140.9868" y="4602560.1556" z="0.0000" type="priority" />
	<node id="410079164" x="553382.4292" y="4602709.7843" z="0.0000" type="priority" />
	<node id="410079167" x="553524.9073" y="4602772.1962" z="0.0000" type="priority" />
	<node id="1214711957" x="552708.0483" y="4602882.5470" z="0.0000" type="priority" />
	<node id="410079166" x="553470.9470" y="4602759.0048" z="0.0000" type="priority" />
	<node id="1214711958" x="552702.1650" y="4602680.6561" z="0.0000" type="priority" />
	<node id="1214767443" x="553375.8998" y="4602850.4966" z="0.0000" type="priority" />
	<node id="1236745830" x="552980.1990" y="4602777.7034" z="0.0000" type="priority" />
	<node id="1214711956" x="552648.6395" y="4602819.7370" z="0.0000" type="priority" />
	<node id="1214711953" x="552651.4459" y="4602801.9376" z="0.0000" type="priority" />
	<node id="1236746007" x="553057.1264" y="4602859.0759" z="0.0000" type="priority" />
	<node id="1236745831" x="553441.2313" y="4602307.8235" z="0.0000" type="priority" />
	<node id="1214711952" x="552653.7197" y="4602858.0897" z="0.0000" type="priority" />
	<node id="1214711950" x="552639.1820" y="4602904.5371" z="0.0000" type="priority" />
	<node id="1214677760" x="552933.7983" y="4602905.2656" z="0.0000" type="priority" />
	<node id="5465550779" x="553086.0247" y="4602614.6399" z="0.0000" type="priority" />
	<node id="5465550778" x="553077.8327" y="4602610.7490" z="0.0000" type="priority" />
	<node id="1214767317" x="554390.0520" y="4602974.9235" z="0.0000" type="priority" />
	<node id="1214767315" x="553562.9315" y="4602615.5749" z="0.0000" type="priority" />
	<node id="1236746015" x="552921.5765" y="4602682.9876" z="0.0000" type="priority" />
	<node id="1214767313" x="554087.5638" y="4602833.7482" z="0.0000" type="priority" />
	<node id="1214767312" x="552834.5344" y="4602596.7905" z="0.0000" type="priority" />
	<node id="1234666275" x="553997.2712" y="4602709.4853" z="0.0000" type="priority" />
	<node id="410079160" x="553227.5966" y="4602572.4402" z="0.0000" type="priority" />
	<node id="1234666397" x="553991.1461" y="4602760.2345" z="0.0000" type="priority" />
	<node id="410079163" x="553371.8534" y="4602690.1095" z="0.0000" type="priority" />
	<node id="1359371312" x="552809.5946" y="4602609.6643" z="0.0000" type="priority" />
	<node id="410079162" x="553328.6730" y="4602645.3118" z="0.0000" type="priority" />
	<node id="1234666395" x="553931.1954" y="4602996.9291" z="0.0000" type="priority" />
	<node id="1236745826" x="553354.7345" y="4602759.0417" z="0.0000" type="priority" />
	<node id="1214711948" x="552763.1110" y="4602834.1095" z="0.0000" type="priority" />
	<node id="1234666279" x="553977.6554" y="4602818.1897" z="0.0000" type="priority" />
	<node id="1214711947" x="552704.4126" y="4602701.6123" z="0.0000" type="priority" />
	<node id="1214711942" x="552676.3836" y="4602944.1463" z="0.0000" type="priority" />
	<node id="1214711943" x="552686.1162" y="4602758.0357" z="0.0000" type="priority" />
	<node id="1214711940" x="552753.5519" y="4602845.0089" z="0.0000" type="priority" />
	<node id="1236745944" x="553282.0742" y="4602618.4866" z="0.0000" type="priority" />
	<node id="1214677762" x="552931.8493" y="4603081.8405" z="0.0000" type="priority" />
	<node id="1214677763" x="552936.4798" y="4602913.6124" z="0.0000" type="priority" />
	<node id="1234666280" x="553326.1561" y="4602992.8982" z="0.0000" type="priority" />
	<node id="1234666281" x="554207.8839" y="4602597.0317" z="0.0000" type="priority" />
	<node id="1236746001" x="553374.8754" y="4602376.9899" z="0.0000" type="priority" />
	<node id="1214677766" x="552938.8959" y="4603006.7711" z="0.0000" type="priority" />
	<node id="1214767303" x="553501.1389" y="4602767.5895" z="0.0000" type="priority" />
	<node id="1214767422" x="554279.3433" y="4602811.5763" z="0.0000" type="priority" />
	<node id="410079271" x="552662.6948" y="4602650.1012" z="0.0000" type="priority" />
	<node id="410079270" x="552670.9379" y="4602657.2783" z="0.0000" type="priority" />
	<node id="410079272" x="552654.8175" y="4602638.4967" z="0.0000" type="priority" />
	<node id="1234666282" x="554071.7627" y="4602460.0212" z="0.0000" type="priority" />
	<node id="1234666284" x="553845.1513" y="4603074.7482" z="0.0000" type="priority" />
	<node id="1214767309" x="553370.0431" y="4602839.8056" z="0.0000" type="priority" />
	<node id="1214711939" x="552688.8063" y="4602912.1725" z="0.0000" type="priority" />
	<node id="410079187" x="554398.0671" y="4602985.5206" z="0.0000" type="priority" />
	<node id="1358286575" x="552890.3345" y="4602761.5764" z="0.0000" type="priority" />
	<node id="410079186" x="554367.6148" y="4602943.2331" z="0.0000" type="priority" />
	<node id="1358286576" x="552967.8014" y="4602763.0009" z="0.0000" type="priority" />
	<node id="410115762" x="554440.0499" y="4603039.8198" z="0.0000" type="priority" />
	<node id="410079189" x="554446.5530" y="4603054.1028" z="0.0000" type="priority" />
	<node id="1214711935" x="552665.5501" y="4602952.6383" z="0.0000" type="priority" />
	<node id="1234666402" x="554101.4238" y="4602624.7316" z="0.0000" type="priority" />
	<node id="1358286577" x="552950.5861" y="4602762.8743" z="0.0000" type="priority" />
	<node id="410079188" x="554412.8501" y="4603011.7794" z="0.0000" type="priority" />
	<node id="1234666524" x="553923.5811" y="4603047.3675" z="0.0000" type="priority" />
	<node id="1358286578" x="553267.4151" y="4602765.2231" z="0.0000" type="priority" />
	<node id="1214711933" x="552692.0544" y="4602746.3658" z="0.0000" type="priority" />
	<node id="1358286571" x="553260.3127" y="4602757.2099" z="0.0000" type="priority" />
	<node id="1214711934" x="552718.1367" y="4602860.8373" z="0.0000" type="priority" />
	<node id="1358286572" x="553262.4913" y="4602760.2460" z="0.0000" type="priority" />
	<node id="1358286573" x="552920.4855" y="4602758.7891" z="0.0000" type="priority" />
	<node id="5750327851" x="553435.5345" y="4602692.2252" z="0.0000" type="priority" />
	<node id="1358286574" x="552933.3960" y="4602759.3171" z="0.0000" type="priority" />
	<node id="5750327850" x="553425.0584" y="4602717.5394" z="0.0000" type="priority" />
	<node id="1234666529" x="553986.2900" y="4602730.7313" z="0.0000" type="priority" />
	<node id="5750327856" x="553438.5731" y="4602727.6433" z="0.0000" type="priority" />
	<node id="5750327849" x="553440.0841" y="4602724.0128" z="0.0000" type="priority" />
	<node id="1214767339" x="554199.1689" y="4602798.8590" z="0.0000" type="priority" />
	<node id="5750327848" x="553450.9246" y="4602697.9019" z="0.0000" type="priority" />
	<node id="1214767338" x="552878.0606" y="4602550.7007" z="0.0000" type="priority" />
	<node id="1214767459" x="553364.8344" y="4602733.8245" z="0.0000" type="priority" />
	<node id="5750327847" x="553431.1791" y="4602745.4527" z="0.0000" type="priority" />
	<node id="1214767216" x="553354.4030" y="4602795.9004" z="0.0000" type="priority" />
	<node id="6821685992" x="553344.1505" y="4602792.2271" z="0.0000" type="priority" />
	<node id="1214767213" x="553755.8338" y="4603085.4497" z="0.0000" type="priority" />
	<node id="410079183" x="554309.4300" y="4602878.1535" z="0.0000" type="priority" />
	<node id="410079182" x="554282.7822" y="4602829.8441" z="0.0000" type="priority" />
	<node id="410079185" x="554357.7696" y="4602921.0531" z="0.0000" type="priority" />
	<node id="410079184" x="554344.2641" y="4602908.8380" z="0.0000" type="priority" />
	<node id="410079181" x="554227.8939" y="4602807.2581" z="0.0000" type="priority" />
	<node id="410079180" x="554173.3541" y="4602799.2531" z="0.0000" type="priority" />
	<node id="1358286568" x="553262.8679" y="4602746.5258" z="0.0000" type="priority" />
	<node id="410079179" x="554151.0879" y="4602807.8012" z="0.0000" type="priority" />
	<node id="1358286569" x="552876.2138" y="4602749.8925" z="0.0000" type="priority" />
	<node id="1234666418" x="553970.1094" y="4602870.5715" z="0.0000" type="priority" />
	<node id="410079176" x="553988.5297" y="4602818.9485" z="0.0000" type="priority" />
	<node id="1358286564" x="552843.6420" y="4602730.3567" z="0.0000" type="priority" />
	<node id="5750327860" x="553539.8749" y="4602719.2030" z="0.0000" type="priority" />
	<node id="410079175" x="553899.3122" y="4602809.1534" z="0.0000" type="priority" />
	<node id="1358286565" x="553267.0679" y="4602737.7746" z="0.0000" type="priority" />
	<node id="410079178" x="554110.9195" y="4602827.7506" z="0.0000" type="priority" />
	<node id="1358286566" x="552862.1108" y="4602736.9208" z="0.0000" type="priority" />
	<node id="410079177" x="554047.8307" y="4602834.6377" z="0.0000" type="priority" />
	<node id="1234666414" x="554010.3576" y="4602701.0121" z="0.0000" type="priority" />
	<node id="1358286567" x="552840.5664" y="4602739.3384" z="0.0000" type="priority" />
	<node id="242553386" x="552649.7082" y="4602629.1774" z="0.0000" type="priority" />
	<node id="1214767333" x="553346.5110" y="4602970.9213" z="0.0000" type="priority" />
	<node id="1214767452" x="554374.7863" y="4602965.0932" z="0.0000" type="priority" />
	<node id="1358286563" x="552852.6969" y="4602729.1353" z="0.0000" type="priority" />
	<node id="1214767208" x="553535.4936" y="4602771.3312" z="0.0000" type="priority" />
	<node id="5750327859" x="553536.1841" y="4602733.4315" z="0.0000" type="priority" />
	<node id="1214767447" x="554067.2355" y="4602835.1831" z="0.0000" type="priority" />
	<node id="410079172" x="553778.5276" y="4602799.6897" z="0.0000" type="priority" />
	<node id="410079171" x="553738.0858" y="4602774.8838" z="0.0000" type="priority" />
	<node id="410079174" x="553858.7443" y="4602810.1820" z="0.0000" type="priority" />
	<node id="1234666420" x="554272.2549" y="4602657.0166" z="0.0000" type="priority" />
	<node id="410079173" x="553811.0016" y="4602807.3934" z="0.0000" type="priority" />
	<node id="410079170" x="553706.0483" y="4602763.4087" z="0.0000" type="priority" />
	<node id="1234666504" x="554072.9367" y="4602626.7159" z="0.0000" type="priority" />
	<node id="1234666506" x="553960.4021" y="4602893.1928" z="0.0000" type="priority" />
	<node id="1234666620" x="553984.6521" y="4602743.4761" z="0.0000" type="priority" />
	<node id="1358286597" x="553167.2775" y="4602820.4739" z="0.0000" type="priority" />
	<node id="1358286599" x="553116.0120" y="4602823.9370" z="0.0000" type="priority" />
	<node id="1234666623" x="553821.9349" y="4603062.2616" z="0.0000" type="priority" />
	<node id="1358286593" x="553175.3495" y="4602810.0970" z="0.0000" type="priority" />
	<node id="1214767486" x="554404.6515" y="4602993.4867" z="0.0000" type="priority" />
	<node id="1358286595" x="552815.7319" y="4602808.3595" z="0.0000" type="priority" />
	<node id="1214767363" x="553371.8138" y="4602921.4351" z="0.0000" type="priority" />
	<node id="1234666629" x="554127.1059" y="4602615.4651" z="0.0000" type="priority" />
	<node id="1358286590" x="553323.4481" y="4602786.7666" z="0.0000" type="priority" />
	<node id="1214767240" x="553835.5699" y="4602810.9080" z="0.0000" type="priority" />
	<node id="1236745910" x="553372.5356" y="4602472.1675" z="0.0000" type="priority" />
	<node id="1358286591" x="553182.0882" y="4602792.8598" z="0.0000" type="priority" />
	<node id="1358286592" x="552822.0486" y="4602799.6680" z="0.0000" type="priority" />
	<node id="1214767479" x="553561.9077" y="4602598.5467" z="0.0000" type="priority" />
	<node id="1214767478" x="554132.6809" y="4602819.7981" z="0.0000" type="priority" />
	<node id="1234666514" x="554287.7657" y="4602677.5849" z="0.0000" type="priority" />
	<node id="1234666516" x="554037.2063" y="4602535.1828" z="0.0000" type="priority" />