<?xml version="1.0" encoding="UTF-8"?>

<!-- generated on Sat Nov 23 00:22:17 2019 by Eclipse SUMO netconvert Version 1.2.0
<configuration xmlns:xsi="http://www.w3.org/2001/XMLSchema-instance" xsi:noNamespaceSchemaLocation="http://sumo.dlr.de/xsd/netconvertConfiguration.xsd">

    <input>
        <node-files value="/home/vsimrti/scenarios/ids/sumo/gualtar2/gualtar2.nod.xml"/>
        <edge-files value="/home/vsimrti/scenarios/ids/sumo/gualtar2/gualtar2.edg.xml"/>
        <connection-files value="/home/vsimrti/scenarios/ids/sumo/gualtar2/gualtar2.con.xml"/>
    </input>

    <output>
        <output-file value="/home/vsimrti/scenarios/ids/sumo/gualtar2/gualtar2.net.xml"/>
    </output>

</configuration>
-->

<net version="1.1" junctionCornerDetail="5" limitTurnSpeed="5.50" xmlns:xsi="http://www.w3.org/2001/XMLSchema-instance" xsi:noNamespaceSchemaLocation="http://sumo.dlr.de/xsd/net_file.xsd">

    <location netOffset="-549454.24,-4600546.90" convBoundary="0.00,0.00,453.38,823.01" origBoundary="549454.24,4600546.90,549907.62,4601369.91" projParameter="!"/>

    <edge id=":1234624460_0" function="internal">
        <lane id=":1234624460_0_0" index="0" speed="13.89" length="0.31" shape="231.04,36.72 230.99,36.42"/>
    </edge>
    <edge id=":1234624460_1" function="internal">
        <lane id=":1234624460_1_0" index="0" speed="13.89" length="0.29" shape="234.15,35.92 234.19,36.21"/>
    </edge>
    <edge id=":1597877243_0" function="internal">
        <lane id=":1597877243_0_0" index="0" speed="13.89" length="0.30" shape="103.34,671.50 103.31,671.80"/>
    </edge>
    <edge id=":1597877252_0" function="internal">
        <lane id=":1597877252_0_0" index="0" speed="13.89" length="0.10" shape="97.92,730.84 97.92,730.84"/>
    </edge>
    <edge id=":1597877266_0" function="internal">
        <lane id=":1597877266_0_0" index="0" speed="13.89" length="0.13" shape="129.43,416.91 129.30,416.90"/>
    </edge>
    <edge id=":1597877266_1" function="internal">
        <lane id=":1597877266_1_0" index="0" speed="13.89" length="0.16" shape="129.54,413.71 129.71,413.72"/>
    </edge>
    <edge id=":1597877268_0" function="internal">
        <lane id=":1597877268_0_0" index="0" speed="5.95" length="7.34" shape="129.15,416.89 127.64,417.12 126.49,418.09 125.71,419.78 125.30,422.19"/>
    </edge>
    <edge id=":1597877268_1" function="internal">
        <lane id=":1597877268_1_0" index="0" speed="3.65" length="2.34" shape="129.15,416.89 128.00,416.02 127.65,415.20"/>
    </edge>
    <edge id=":1597877268_4" function="internal">
        <lane id=":1597877268_4_0" index="0" speed="3.65" length="2.34" shape="127.65,415.20 128.10,414.42 129.34,413.69"/>
    </edge>
    <edge id=":1597877268_2" function="internal">
        <lane id=":1597877268_2_0" index="0" speed="13.89" length="8.97" shape="120.40,413.72 123.04,413.47 124.87,413.40 126.69,413.49 129.34,413.69"/>
    </edge>
    <edge id=":1597877268_3" function="internal">
        <lane id=":1597877268_3_0" index="0" speed="6.82" length="6.65" shape="120.40,413.72 122.81,414.02 124.44,415.54 125.02,417.45"/>
    </edge>
    <edge id=":1597877268_5" function="internal">
        <lane id=":1597877268_5_0" index="0" speed="6.82" length="4.78" shape="125.02,417.45 125.27,418.26 125.30,422.19"/>
    </edge>
    <edge id=":1597877273_0" function="internal">
        <lane id=":1597877273_0_0" index="0" speed="13.89" length="0.87" shape="119.50,414.04 119.71,413.89 119.87,413.81 120.04,413.76 120.30,413.73"/>
    </edge>
    <edge id=":1597877275_0" function="internal">
        <lane id=":1597877275_0_0" index="0" speed="13.89" length="0.30" shape="108.95,608.81 108.92,609.11"/>
    </edge>
    <edge id=":1597877287_0" function="internal">
        <lane id=":1597877287_0_0" index="0" speed="4.44" length="1.02" shape="115.57,417.38 115.66,417.10 115.76,416.91 115.90,416.76 116.14,416.57"/>
    </edge>
    <edge id=":1597877290_0" function="internal">
        <lane id=":1597877290_0_0" index="0" speed="13.89" length="0.10" shape="90.00,817.87 90.00,817.87"/>
    </edge>
    <edge id=":1597877293_0" function="internal">
        <lane id=":1597877293_0_0" index="0" speed="5.91" length="7.85" shape="125.93,466.55 124.10,466.55 122.71,467.37 121.78,469.02 121.29,471.48"/>
    </edge>
    <edge id=":1597877293_1" function="internal">
        <lane id=":1597877293_1_0" index="0" speed="6.95" length="9.96" shape="125.93,466.55 116.11,464.92"/>
    </edge>
    <edge id=":1597877293_2" function="internal">
        <lane id=":1597877293_2_0" index="0" speed="4.08" length="6.40" shape="125.93,466.55 123.96,466.48 122.92,465.84 122.81,464.62 123.63,462.83"/>
    </edge>
    <edge id=":1597877293_3" function="internal">
        <lane id=":1597877293_3_0" index="0" speed="5.85" length="6.46" shape="122.55,456.75 122.44,459.29 122.59,461.15 122.99,462.33 123.63,462.83"/>
    </edge>
    <edge id=":1597877293_4" function="internal">
        <lane id=":1597877293_4_0" index="0" speed="13.89" length="14.78" shape="122.55,456.75 121.29,471.48"/>
    </edge>
    <edge id=":1597877293_5" function="internal">
        <lane id=":1597877293_5_0" index="0" speed="7.25" length="11.79" shape="122.55,456.75 121.88,460.58 120.59,463.21 118.66,464.66 116.11,464.92"/>
    </edge>
    <edge id=":1597877293_6" function="internal">
        <lane id=":1597877293_6_0" index="0" speed="6.95" length="7.23" shape="116.48,461.74 123.63,462.83"/>
    </edge>
    <edge id=":1597877293_7" function="internal">
        <lane id=":1597877293_7_0" index="0" speed="7.51" length="12.14" shape="116.48,461.74 118.89,462.60 120.50,464.50 121.30,467.47 121.29,471.48"/>
    </edge>
    <edge id=":1597877293_8" function="internal">
        <lane id=":1597877293_8_0" index="0" speed="3.65" length="4.67" shape="116.48,461.74 117.58,462.68 117.88,463.52 117.40,464.27 116.11,464.92"/>
    </edge>
    <edge id=":1597877294_0" function="internal">
        <lane id=":1597877294_0_0" index="0" speed="6.02" length="7.59" shape="120.95,515.88 119.29,516.08 118.03,517.02 117.18,518.70 116.73,521.12"/>
    </edge>
    <edge id=":1597877294_1" function="internal">
        <lane id=":1597877294_1_0" index="0" speed="8.33" length="9.35" shape="120.95,515.88 111.64,515.04"/>
    </edge>
    <edge id=":1597877294_2" function="internal">
        <lane id=":1597877294_2_0" index="0" speed="4.01" length="6.11" shape="120.95,515.88 119.06,515.92 118.04,515.36 117.86,514.20 118.55,512.45"/>
    </edge>
    <edge id=":1597877294_3" function="internal">
        <lane id=":1597877294_3_0" index="0" speed="4.80" length="4.49" shape="117.96,508.21 117.84,510.03 117.89,511.34 118.13,512.15 118.55,512.45"/>
    </edge>
    <edge id=":1597877294_4" function="internal">
        <lane id=":1597877294_4_0" index="0" speed="13.89" length="12.97" shape="117.96,508.21 116.73,521.12"/>
    </edge>
    <edge id=":1597877294_5" function="internal">
        <lane id=":1597877294_5_0" index="0" speed="7.01" length="10.52" shape="117.96,508.21 117.28,511.38 116.00,513.58 114.12,514.80 111.64,515.04"/>
    </edge>
    <edge id=":1597877294_6" function="internal">
        <lane id=":1597877294_6_0" index="0" speed="8.33" length="6.65" shape="111.93,511.86 118.55,512.45"/>
    </edge>
    <edge id=":1597877294_7" function="internal">
        <lane id=":1597877294_7_0" index="0" speed="7.33" length="11.73" shape="111.93,511.86 114.32,512.62 115.91,514.42 116.72,517.25 116.73,521.12"/>
    </edge>
    <edge id=":1597877294_8" function="internal">
        <lane id=":1597877294_8_0" index="0" speed="3.65" length="4.67" shape="111.93,511.86 113.05,512.76 113.38,513.59 112.91,514.35 111.64,515.04"/>
    </edge>
    <edge id=":1597879978_0" function="internal">
        <lane id=":1597879978_0_0" index="0" speed="5.56" length="9.23" shape="262.24,358.17 259.70,358.30 257.79,359.19 256.53,360.85 255.92,363.27"/>
    </edge>
    <edge id=":1597879978_1" function="internal">
        <lane id=":1597879978_1_0" index="0" speed="5.56" length="11.39" shape="262.24,358.17 250.90,357.19"/>
    </edge>
    <edge id=":1597879978_2" function="internal">
        <lane id=":1597879978_2_0" index="0" speed="3.65" length="2.34" shape="262.24,358.17 261.12,357.27 260.79,356.44"/>
    </edge>
    <edge id=":1597879978_9" function="internal">
        <lane id=":1597879978_9_0" index="0" speed="3.65" length="2.34" shape="260.79,356.44 261.26,355.67 262.52,354.98"/>
    </edge>
    <edge id=":1597879978_3" function="internal">
        <lane id=":1597879978_3_0" index="0" speed="5.56" length="9.04" shape="257.59,348.87 257.63,351.36 258.47,353.21 260.10,354.41 262.52,354.98"/>
    </edge>
    <edge id=":1597879978_4" function="internal">
        <lane id=":1597879978_4_0" index="0" speed="5.56" length="14.49" shape="257.59,348.87 255.92,363.27"/>
    </edge>
    <edge id=":1597879978_5" function="internal">
        <lane id=":1597879978_5_0" index="0" speed="5.56" length="11.91" shape="257.59,348.87 256.75,352.69 255.36,355.35 253.40,356.85 250.90,357.19"/>
    </edge>
    <edge id=":1597879978_6" function="internal">
        <lane id=":1597879978_6_0" index="0" speed="5.56" length="11.39" shape="251.17,354.00 262.52,354.98"/>
    </edge>
    <edge id=":1597879978_7" function="internal">
        <lane id=":1597879978_7_0" index="0" speed="5.56" length="4.07" shape="251.17,354.00 253.59,354.76 254.61,355.90"/>
    </edge>
    <edge id=":1597879978_8" function="internal">
        <lane id=":1597879978_8_0" index="0" speed="3.65" length="2.34" shape="251.17,354.00 252.30,354.90 252.63,355.73"/>
    </edge>
    <edge id=":1597879978_10" function="internal">
        <lane id=":1597879978_10_0" index="0" speed="5.56" length="7.69" shape="254.61,355.90 255.19,356.56 255.97,359.39 255.92,363.27"/>
    </edge>
    <edge id=":1597879978_11" function="internal">
        <lane id=":1597879978_11_0" index="0" speed="3.65" length="2.34" shape="252.63,355.73 252.16,356.49 250.90,357.19"/>
    </edge>
    <edge id=":1597879981_0" function="internal">
        <lane id=":1597879981_0_0" index="0" speed="13.89" length="14.45" shape="276.04,326.03 274.52,340.40"/>
    </edge>
    <edge id=":1597879981_1" function="internal">
        <lane id=":1597879981_1_0" index="0" speed="8.07" length="5.95" shape="276.04,326.03 275.11,329.78 273.86,331.44"/>
    </edge>
    <edge id=":1597879981_2" function="internal">
        <lane id=":1597879981_2_0" index="0" speed="3.65" length="2.34" shape="276.04,326.03 275.12,327.14 274.29,327.46"/>
    </edge>
    <edge id=":1597879981_9" function="internal">
        <lane id=":1597879981_9_0" index="0" speed="8.07" length="8.30" shape="273.86,331.44 273.18,332.35 270.25,333.75 266.33,333.97"/>
    </edge>
    <edge id=":1597879981_10" function="internal">
        <lane id=":1597879981_10_0" index="0" speed="3.65" length="2.34" shape="274.29,327.46 273.53,326.98 272.85,325.71"/>
    </edge>
    <edge id=":1597879981_3" function="internal">
        <lane id=":1597879981_3_0" index="0" speed="6.59" length="9.15" shape="266.59,330.79 269.12,330.64 271.01,329.75 272.25,328.10 272.85,325.71"/>
    </edge>
    <edge id=":1597879981_4" function="internal">
        <lane id=":1597879981_4_0" index="0" speed="7.95" length="14.30" shape="266.59,330.79 270.43,331.66 273.03,333.55 274.39,336.47 274.52,340.40"/>
    </edge>
    <edge id=":1597879981_5" function="internal">
        <lane id=":1597879981_5_0" index="0" speed="3.65" length="4.67" shape="266.59,330.79 267.72,331.68 268.06,332.51 267.59,333.28 266.33,333.97"/>
    </edge>
    <edge id=":1597879981_6" function="internal">
        <lane id=":1597879981_6_0" index="0" speed="6.44" length="9.03" shape="271.34,340.05 271.26,337.56 270.40,335.72 268.76,334.53 266.33,333.97"/>
    </edge>
    <edge id=":1597879981_7" function="internal">
        <lane id=":1597879981_7_0" index="0" speed="13.89" length="14.42" shape="271.34,340.05 272.85,325.71"/>
    </edge>
    <edge id=":1597879981_8" function="internal">
        <lane id=":1597879981_8_0" index="0" speed="3.65" length="2.34" shape="271.34,340.05 272.26,338.94 273.10,338.63"/>
    </edge>
    <edge id=":1597879981_11" function="internal">
        <lane id=":1597879981_11_0" index="0" speed="3.65" length="2.34" shape="273.10,338.63 273.85,339.12 274.52,340.40"/>
    </edge>
    <edge id=":1597879989_0" function="internal">
        <lane id=":1597879989_0_0" index="0" speed="3.91" length="2.53" shape="255.15,370.60 254.98,371.27 254.64,371.73 254.12,371.98 253.43,372.02"/>
    </edge>
    <edge id=":1597879992_0" function="internal">
        <lane id=":1597879992_0_0" index="0" speed="3.90" length="2.57" shape="211.52,368.73 210.83,368.57 210.36,368.24 210.10,367.72 210.05,367.01"/>
    </edge>
    <edge id=":1597879995_0" function="internal">
        <lane id=":1597879995_0_0" index="0" speed="5.56" length="8.24" shape="259.10,336.70 258.10,344.88"/>
    </edge>
    <edge id=":1597879995_1" function="internal">
        <lane id=":1597879995_1_0" index="0" speed="3.65" length="2.71" shape="259.10,336.70 258.17,337.80 257.32,338.10 257.01,337.89"/>
    </edge>
    <edge id=":1597879995_4" function="internal">
        <lane id=":1597879995_4_0" index="0" speed="3.65" length="1.96" shape="257.01,337.89 256.58,337.61 255.92,336.32"/>
    </edge>
    <edge id=":1597879995_2" function="internal">
        <lane id=":1597879995_2_0" index="0" speed="5.56" length="6.82" shape="250.17,338.59 252.56,338.63 254.32,338.27 255.44,337.50 255.92,336.32"/>
    </edge>
    <edge id=":1597879995_3" function="internal">
        <lane id=":1597879995_3_0" index="0" speed="5.56" length="7.45" shape="250.17,338.59 253.90,339.27 256.47,340.55 256.94,341.18"/>
    </edge>
    <edge id=":1597879995_5" function="internal">
        <lane id=":1597879995_5_0" index="0" speed="5.56" length="4.02" shape="256.94,341.18 257.87,342.42 258.10,344.88"/>
    </edge>
    <edge id=":1597880008_0" function="internal">
        <lane id=":1597880008_0_0" index="0" speed="5.56" length="0.58" shape="204.25,330.62 204.15,330.76 204.09,330.86 204.05,330.97 204.01,331.13"/>
    </edge>
    <edge id=":1597880008_1" function="internal">
        <lane id=":1597880008_1_0" index="0" speed="5.56" length="1.78" shape="200.91,330.33 201.05,329.82 201.18,329.48 201.36,329.16 201.66,328.73"/>
    </edge>
    <edge id=":1597880014_0" function="internal">
        <lane id=":1597880014_0_0" index="0" speed="3.90" length="2.57" shape="212.60,336.80 212.77,336.11 213.11,335.65 213.64,335.39 214.34,335.36"/>
    </edge>
    <edge id=":1597880016_0" function="internal">
        <lane id=":1597880016_0_0" index="0" speed="5.56" length="0.22" shape="208.42,329.46 208.35,329.46 208.31,329.45 208.26,329.46 208.20,329.46"/>
    </edge>
    <edge id=":1597880016_1" function="internal">
        <lane id=":1597880016_1_0" index="0" speed="5.56" length="0.66" shape="208.01,326.27 208.20,326.25 208.34,326.25 208.47,326.26 208.66,326.27"/>
    </edge>
    <edge id=":1597880019_0" function="internal">
        <lane id=":1597880019_0_0" index="0" speed="5.56" length="1.10" shape="214.14,354.04 213.11,353.65"/>
    </edge>
    <edge id=":1597880019_1" function="internal">
        <lane id=":1597880019_1_0" index="0" speed="3.65" length="1.16" shape="214.14,354.04 213.24,353.32"/>
    </edge>
    <edge id=":1597880019_4" function="internal">
        <lane id=":1597880019_4_0" index="0" speed="5.56" length="6.68" shape="213.11,353.65 212.81,353.53 211.94,352.27 211.53,350.25 211.60,347.49"/>
    </edge>
    <edge id=":1597880019_5" function="internal">
        <lane id=":1597880019_5_0" index="0" speed="3.65" length="3.51" shape="213.24,353.32 213.01,353.14 212.68,352.31 213.15,351.55 214.41,350.85"/>
    </edge>
    <edge id=":1597880019_2" function="internal">
        <lane id=":1597880019_2_0" index="0" speed="5.56" length="9.43" shape="210.80,356.89 211.60,347.49"/>
    </edge>
    <edge id=":1597880019_3" function="internal">
        <lane id=":1597880019_3_0" index="0" speed="5.56" length="7.79" shape="210.80,356.89 211.20,354.15 211.94,352.23 213.01,351.13 214.41,350.85"/>
    </edge>
    <edge id=":1597880024_0" function="internal">
        <lane id=":1597880024_0_0" index="0" speed="3.65" length="4.67" shape="203.73,332.21 202.65,333.17 201.78,333.35 201.11,332.76 200.63,331.40"/>
    </edge>
    <edge id=":1597880027_0" function="internal">
        <lane id=":1597880027_0_0" index="0" speed="4.94" length="4.63" shape="262.05,333.62 260.90,333.73 260.03,334.24 259.44,335.16 259.12,336.50"/>
    </edge>
    <edge id=":1597880027_1" function="internal">
        <lane id=":1597880027_1_0" index="0" speed="5.56" length="11.44" shape="262.05,333.62 250.64,332.73"/>
    </edge>
    <edge id=":1597880027_2" function="internal">
        <lane id=":1597880027_2_0" index="0" speed="3.88" length="3.85" shape="262.05,333.62 260.33,333.47 259.46,332.86 259.42,331.79"/>
    </edge>
    <edge id=":1597880027_9" function="internal">
        <lane id=":1597880027_9_0" index="0" speed="3.88" length="1.72" shape="259.42,331.79 260.23,330.27"/>
    </edge>
    <edge id=":1597880027_3" function="internal">
        <lane id=":1597880027_3_0" index="0" speed="5.56" length="9.36" shape="250.89,329.54 260.23,330.27"/>
    </edge>
    <edge id=":1597880027_4" function="internal">
        <lane id=":1597880027_4_0" index="0" speed="5.56" length="6.94" shape="250.89,329.54 254.77,330.24 257.43,331.63"/>
    </edge>
    <edge id=":1597880027_5" function="internal">
        <lane id=":1597880027_5_0" index="0" speed="3.65" length="2.34" shape="250.89,329.54 252.02,330.43 252.36,331.26"/>
    </edge>
    <edge id=":1597880027_10" function="internal">
        <lane id=":1597880027_10_0" index="0" speed="5.56" length="5.34" shape="257.43,331.63 258.88,333.71 259.12,336.50"/>
    </edge>
    <edge id=":1597880027_11" function="internal">
        <lane id=":1597880027_11_0" index="0" speed="3.65" length="2.34" shape="252.36,331.26 251.90,332.03 250.64,332.73"/>
    </edge>
    <edge id=":1597880027_6" function="internal">
        <lane id=":1597880027_6_0" index="0" speed="5.56" length="7.03" shape="255.94,336.13 255.74,334.80 254.79,333.80 253.09,333.11 250.64,332.73"/>
    </edge>
    <edge id=":1597880027_7" function="internal">
        <lane id=":1597880027_7_0" index="0" speed="5.56" length="8.06" shape="255.94,336.13 256.48,333.46 257.37,331.59 258.62,330.53 260.23,330.27"/>
    </edge>
    <edge id=":1597880027_8" function="internal">
        <lane id=":1597880027_8_0" index="0" speed="3.65" length="4.67" shape="255.94,336.13 256.88,335.03 257.72,334.72 258.47,335.21 259.12,336.50"/>
    </edge>
    <edge id=":1620509206_0" function="internal">
        <lane id=":1620509206_0_0" index="0" speed="8.33" length="1.23" shape="428.69,383.11 428.86,383.63 428.95,383.99 428.98,384.37 428.96,384.91"/>
        <lane id=":1620509206_0_1" index="1" speed="8.33" length="1.23" shape="425.67,384.18 425.73,384.36 425.76,384.48 425.77,384.60 425.76,384.78"/>
    </edge>
    <edge id=":1620509215_0" function="internal">
        <lane id=":1620509215_0_0" index="0" speed="8.13" length="1.48" shape="426.92,394.47 426.67,395.08 426.45,395.48 426.16,395.83 425.68,396.28"/>
        <lane id=":1620509215_0_1" index="1" speed="8.33" length="1.48" shape="423.94,393.31 423.86,393.51 423.79,393.64 423.69,393.76 423.53,393.91"/>
    </edge>
    <edge id=":1620509217_0" function="internal">
        <lane id=":1620509217_0_0" index="0" speed="8.33" length="3.62" shape="410.55,401.32 409.40,401.25 408.62,401.09 407.84,400.87 406.71,400.59"/>
        <lane id=":1620509217_0_1" index="1" speed="8.33" length="3.62" shape="410.61,398.12 409.64,398.05 408.98,397.91 408.33,397.70 407.37,397.46"/>
    </edge>
    <edge id=":1723928911_0" function="internal">
        <lane id=":1723928911_0_0" index="0" speed="13.89" length="0.22" shape="240.46,94.33 240.42,94.11"/>
    </edge>
    <edge id=":1723928911_1" function="internal">
        <lane id=":1723928911_1_0" index="0" speed="13.89" length="0.31" shape="243.58,93.59 243.63,93.90"/>
    </edge>
    <edge id=":2065719206_0" function="internal">
        <lane id=":2065719206_0_0" index="0" speed="13.89" length="0.60" shape="226.33,7.07 226.31,6.89 226.29,6.77 226.28,6.65 226.28,6.47"/>
    </edge>
    <edge id=":2065719206_1" function="internal">
        <lane id=":2065719206_1_0" index="0" speed="13.89" length="0.20" shape="229.48,6.37 229.48,6.43 229.48,6.47 229.49,6.51 229.49,6.57"/>
    </edge>
    <edge id=":2182365739_0" function="internal">
        <lane id=":2182365739_0_0" index="0" speed="13.89" length="0.28" shape="78.76,816.72 78.78,816.44"/>
    </edge>
    <edge id=":2182365752_0" function="internal">
        <lane id=":2182365752_0_0" index="0" speed="13.89" length="0.19" shape="97.06,612.23 97.07,612.04"/>
    </edge>
    <edge id=":2182365754_0" function="internal">
        <lane id=":2182365754_0_0" index="0" speed="13.89" length="0.30" shape="108.36,615.43 108.34,615.73"/>
    </edge>
    <edge id=":2182365757_0" function="internal">
        <lane id=":2182365757_0_0" index="0" speed="13.89" length="0.10" shape="97.95,598.56 97.95,598.56"/>
    </edge>
    <edge id=":2182365760_0" function="internal">
        <lane id=":2182365760_0_0" index="0" speed="13.89" length="0.30" shape="109.58,601.81 109.55,602.11"/>
    </edge>
    <edge id=":2182365768_0" function="internal">
        <lane id=":2182365768_0_0" index="0" speed="13.89" length="2.88" shape="105.78,509.93 106.08,507.06"/>
    </edge>
    <edge id=":2182365776_0" function="internal">
        <lane id=":2182365776_0_0" index="0" speed="13.89" length="0.16" shape="117.99,507.92 117.98,508.08"/>
    </edge>
    <edge id=":2182365780_0" function="internal">
        <lane id=":2182365780_0_0" index="0" speed="8.33" length="0.15" shape="102.12,514.19 101.97,514.18"/>
    </edge>
    <edge id=":2182365780_1" function="internal">
        <lane id=":2182365780_1_0" index="0" speed="8.33" length="0.15" shape="102.25,510.99 102.40,511.01"/>
    </edge>
    <edge id=":2182365793_0" function="internal">
        <lane id=":2182365793_0_0" index="0" speed="8.33" length="0.15" shape="121.25,515.90 121.10,515.89"/>
    </edge>
    <edge id=":2182365793_1" function="internal">
        <lane id=":2182365793_1_0" index="0" speed="8.33" length="2.80" shape="118.75,512.46 121.53,512.71"/>
    </edge>
    <edge id=":2182365801_0" function="internal">
        <lane id=":2182365801_0_0" index="0" speed="8.33" length="2.44" shape="107.97,476.38 105.54,476.17"/>
        <lane id=":2182365801_0_1" index="1" speed="8.33" length="2.44" shape="108.24,473.19 105.81,472.98"/>
    </edge>
    <edge id=":2182365811_0" function="internal">
        <lane id=":2182365811_0_0" index="0" speed="8.33" length="0.15" shape="107.49,457.62 107.64,457.63"/>
        <lane id=":2182365811_0_1" index="1" speed="8.33" length="0.15" shape="107.22,460.81 107.37,460.82"/>
    </edge>
    <edge id=":242137472_0" function="internal">
        <lane id=":242137472_0_0" index="0" speed="3.65" length="4.67" shape="245.74,668.21 244.65,669.16 243.77,669.34 243.11,668.74 242.65,667.37"/>
    </edge>
    <edge id=":242554031_0" function="internal">
        <lane id=":242554031_0_0" index="0" speed="8.33" length="0.30" shape="48.18,452.63 48.48,452.65"/>
        <lane id=":242554031_0_1" index="1" speed="8.33" length="0.30" shape="47.91,455.82 48.21,455.84"/>
    </edge>
    <edge id=":242554076_0" function="internal">
        <lane id=":242554076_0_0" index="0" speed="8.33" length="8.67" shape="110.95,514.98 102.31,514.21"/>
    </edge>
    <edge id=":242554076_1" function="internal">
        <lane id=":242554076_1_0" index="0" speed="6.16" length="8.09" shape="110.95,514.98 108.51,514.49 106.83,513.52 105.92,512.07 105.76,510.13"/>
    </edge>
    <edge id=":242554076_2" function="internal">
        <lane id=":242554076_2_0" index="0" speed="3.65" length="4.67" shape="110.95,514.98 109.83,514.08 109.50,513.25 109.97,512.49 111.23,511.79"/>
    </edge>
    <edge id=":242554076_3" function="internal">
        <lane id=":242554076_3_0" index="0" speed="4.44" length="3.60" shape="102.55,511.02 103.91,511.07 104.90,510.94 105.51,510.62 105.76,510.13"/>
    </edge>
    <edge id=":242554076_4" function="internal">
        <lane id=":242554076_4_0" index="0" speed="8.33" length="8.72" shape="102.55,511.02 111.23,511.79"/>
    </edge>
    <edge id=":242554076_5" function="internal">
        <lane id=":242554076_5_0" index="0" speed="3.65" length="4.67" shape="102.55,511.02 103.69,511.91 104.03,512.73 103.57,513.50 102.31,514.21"/>
    </edge>
    <edge id=":242554076_6" function="internal">
        <lane id=":242554076_6_0" index="0" speed="5.85" length="7.08" shape="104.85,520.06 104.87,517.60 104.46,515.81 103.61,514.68 102.31,514.21"/>
    </edge>
    <edge id=":242554076_7" function="internal">
        <lane id=":242554076_7_0" index="0" speed="13.89" length="9.97" shape="104.85,520.06 105.76,510.13"/>
    </edge>
    <edge id=":242554076_8" function="internal">
        <lane id=":242554076_8_0" index="0" speed="7.33" length="11.75" shape="104.85,520.06 105.53,516.25 106.83,513.61 108.73,512.12 111.23,511.79"/>
    </edge>
    <edge id=":242554077_0" function="internal">
        <lane id=":242554077_0_0" index="0" speed="3.65" length="4.67" shape="43.54,508.97 42.41,508.07 42.09,507.24 42.56,506.47 43.82,505.78"/>
    </edge>
    <edge id=":242554104_0" function="internal">
        <lane id=":242554104_0_0" index="0" speed="13.89" length="0.32" shape="114.09,422.30 114.10,422.21 114.11,422.14 114.12,422.08 114.15,421.99"/>
    </edge>
    <edge id=":242554105_0" function="internal">
        <lane id=":242554105_0_0" index="0" speed="13.89" length="0.10" shape="97.39,605.04 97.39,604.98"/>
    </edge>
    <edge id=":242554443_0" function="internal">
        <lane id=":242554443_0_0" index="0" speed="6.52" length="8.79" shape="326.95,380.45 324.56,380.29 322.66,380.92 321.26,382.34 320.35,384.56"/>
    </edge>
    <edge id=":242554443_1" function="internal">
        <lane id=":242554443_1_0" index="0" speed="8.01" length="13.80" shape="326.95,380.45 323.41,379.16 321.09,377.05 319.98,374.12 320.09,370.36"/>
    </edge>
    <edge id=":242554443_2" function="internal">
        <lane id=":242554443_2_0" index="0" speed="3.65" length="4.67" shape="326.95,380.45 325.94,379.42 325.71,378.55 326.27,377.85 327.61,377.32"/>
    </edge>
    <edge id=":242554443_3" function="internal">
        <lane id=":242554443_3_0" index="0" speed="6.51" length="8.78" shape="323.24,370.89 323.18,373.29 323.88,375.16 325.36,376.50 327.61,377.32"/>
    </edge>
    <edge id=":242554443_4" function="internal">
        <lane id=":242554443_4_0" index="0" speed="13.89" length="13.96" shape="323.24,370.89 320.35,384.56"/>
    </edge>
    <edge id=":242554443_5" function="internal">
        <lane id=":242554443_5_0" index="0" speed="3.65" length="2.34" shape="323.24,370.89 322.25,371.94 321.40,372.20"/>
    </edge>
    <edge id=":242554443_9" function="internal">
        <lane id=":242554443_9_0" index="0" speed="3.65" length="2.34" shape="321.40,372.20 320.68,371.67 320.09,370.36"/>
    </edge>
    <edge id=":242554443_6" function="internal">
        <lane id=":242554443_6_0" index="0" speed="13.89" length="13.71" shape="317.25,383.77 320.09,370.36"/>
    </edge>
    <edge id=":242554443_7" function="internal">
        <lane id=":242554443_7_0" index="0" speed="8.01" length="5.47" shape="317.25,383.77 318.68,380.29 319.88,379.07"/>
    </edge>
    <edge id=":242554443_8" function="internal">
        <lane id=":242554443_8_0" index="0" speed="3.65" length="2.34" shape="317.25,383.77 318.32,382.80 319.19,382.61"/>
    </edge>
    <edge id=":242554443_10" function="internal">
        <lane id=":242554443_10_0" index="0" speed="8.01" length="8.33" shape="319.88,379.07 320.88,378.06 323.86,377.06 327.61,377.32"/>
    </edge>
    <edge id=":242554443_11" function="internal">
        <lane id=":242554443_11_0" index="0" speed="3.65" length="2.34" shape="319.19,382.61 319.87,383.20 320.35,384.56"/>
    </edge>
    <edge id=":242554444_0" function="internal">
        <lane id=":242554444_0_0" index="0" speed="13.89" length="10.61" shape="291.79,527.71 289.88,538.14"/>
    </edge>
    <edge id=":242554444_1" function="internal">
        <lane id=":242554444_1_0" index="0" speed="5.51" length="5.46" shape="291.79,527.71 291.19,530.21 290.27,531.78 289.33,532.27"/>
    </edge>
    <edge id=":242554444_2" function="internal">
        <lane id=":242554444_2_0" index="0" speed="3.65" length="2.34" shape="291.79,527.71 290.83,528.78 289.98,529.06"/>
    </edge>
    <edge id=":242554444_9" function="internal">
        <lane id=":242554444_9_0" index="0" speed="5.51" length="1.94" shape="289.33,532.27 289.03,532.43 287.45,532.15"/>
    </edge>
    <edge id=":242554444_10" function="internal">
        <lane id=":242554444_10_0" index="0" speed="3.65" length="2.34" shape="289.98,529.06 289.24,528.55 288.62,527.25"/>
    </edge>
    <edge id=":242554444_3" function="internal">
        <lane id=":242554444_3_0" index="0" speed="3.57" length="2.38" shape="287.13,528.53 287.68,528.65 288.12,528.47 288.43,528.00 288.62,527.25"/>
    </edge>
    <edge id=":242554444_4" function="internal">
        <lane id=":242554444_4_0" index="0" speed="7.63" length="10.84" shape="287.13,528.53 288.93,529.83 289.99,531.86 290.30,534.63 289.88,538.14"/>
    </edge>
    <edge id=":242554444_5" function="internal">
        <lane id=":242554444_5_0" index="0" speed="3.81" length="5.31" shape="287.13,528.53 288.57,529.31 289.10,530.18 288.73,531.12 287.45,532.15"/>
    </edge>
    <edge id=":242554444_6" function="internal">
        <lane id=":242554444_6_0" index="0" speed="5.64" length="5.52" shape="286.74,537.50 287.07,536.31 287.52,534.60 287.76,533.01 287.45,532.15"/>
    </edge>
    <edge id=":242554444_7" function="internal">