<connections>
	<connection from="321639557_242137472_242554444_242137472" to="321639557_242137472_242554444_4605454429" />
	<connection from="321639557_242137472_242554444_4605454429" to="321639557_242137472_242554444_4610598604" />
	<connection from="321639557_242137472_242554444_4610598604" to="321639557_242137472_242554444_242554445" />
	<connection from="321639557_242137472_242554444_242554445" to="321639557_242137472_242554444_4605454428" />
	<connection from="321639557_242137472_242554444_4605454428" to="321639564_242554444_343667955_242554444" />
	<connection from="321639557_242137472_242554444_4605454428" to="321639560_242554444_2636894015_242554444" />
	<connection from="321639557_242137472_242554444_4605454428" to="321639557_242554444_242137472_242554444" />
	<connection from="146503524_1597879978_1597880019_1597879978" to="146503529_1597880019_1597879995_1597880019" />
	<connection from="146503524_1597879978_1597880019_1597879978" to="146503524_1597880019_1597879978_1597880019" />
	<connection from="146503524_1597880019_1597879978_1597880019" to="146503524_1597879978_1597880019_1597879978" />
	<connection from="146503524_1597880019_1597879978_1597880019" to="320664267_1597879978_3272862681_1597879978" />
	<connection from="146503524_1597880019_1597879978_1597880019" to="146503531_1597879978_1597880019_1597879978" />
	<connection from="146503294_5497744964_343669557_5497744964" to="146503294_343669557_5497744964_343669557" />
	<connection from="146503294_5497744964_343669557_5497744964" to="146503294_343669557_1597877294_343669557" />
	<connection from="146503294_5497744964_343669557_5497744964" to="319422982_343669557_6917090035_343669557" />
	<connection from="738676777_5497744964_6917090034_5497744964" to="738676777_6917090034_5497744964_6917090034" />
	<connection from="258310624_2636894015_2636894010_2636894015" to="144337356_2636894010_343668422_2636894010" />
	<connection from="258310624_2636894015_2636894010_2636894015" to="144337356_2636894010_3272862681_2636894010" />
	<connection from="258310624_2636894015_2636894010_2636894015" to="258310624_2636894010_2636894015_2636894010" />
	<connection from="738676777_6917090034_5497744964_6917090034" to="738676777_5497744964_6917090034_5497744964" />
	<connection from="738676777_6917090034_5497744964_6917090034" to="146503294_5497744964_343667955_5497744964" />
	<connection from="738676777_6917090034_5497744964_6917090034" to="146503294_5497744964_343669557_5497744964" />
	<connection from="738676777_6917090034_5497744964_6917090034" to="572210063_5497744964_5497744965_5497744964" />
	<connection from="748870261_4633981368_4610599207_4633981368" to="748870261_4633981368_4610599207_7003287590" />
	<connection from="748870261_4633981368_4610599207_7003287590" to="748870261_4633981368_4610599207_7003287589" />
	<connection from="748870261_4633981368_4610599207_7003287589" to="748870261_4633981368_4610599207_7003287588" />
	<connection from="748870261_4633981368_4610599207_7003287588" to="748870261_4633981368_4610599207_7003287587" />
	<connection from="748870261_4633981368_4610599207_7003287587" to="748870261_4633981368_4610599207_7003287586" />
	<connection from="748870261_4633981368_4610599207_7003287586" to="748870261_4633981368_4610599207_7003287591" />
	<connection from="748870261_4633981368_4610599207_7003287591" to="321639560_4610599207_242554443_4610599207" />
	<connection from="748870261_4633981368_4610599207_7003287591" to="748870261_4610599207_4633981368_4610599207" />
	<connection from="748870261_4633981368_4610599207_7003287591" to="321639560_4610599207_343666622_4610599207" />
	<connection from="146503289_1597877293_343668304_1597877293" to="146503289_343668304_1597877293_343668304" />
	<connection from="146503289_1597877293_343668304_1597877293" to="22605741_343668304_1597877268_343668304" />
	<connection from="144337356_3272862681_1597879981_3272862681" to="144337356_1597879981_3272862681_1597879981" />
	<connection from="144337356_3272862681_1597879981_3272862681" to="144337356_1597879981_343666622_1597879981" />
	<connection from="144337356_3272862681_1597879981_3272862681" to="146503523_1597879981_1597880027_1597879981" />
	<connection from="146503525_1597880027_1597879995_1597880027" to="146503525_1597879995_1597880027_1597879995" />
	<connection from="146503525_1597880027_1597879995_1597880027" to="146503522_1597879995_1597879978_1597879995" />
	<connection from="321639560_242554444_2636894015_242554444" to="321639560_242554444_2636894015_3272839026" />
	<connection from="321639560_242554444_2636894015_3272839026" to="321639560_242554444_2636894015_4633981366" />
	<connection from="321639560_242554444_2636894015_4633981366" to="321639560_242554444_2636894015_3272839027" />
	<connection from="321639560_242554444_2636894015_3272839027" to="258310624_2636894015_2636894010_2636894015" />
	<connection from="321639560_242554444_2636894015_3272839027" to="321639560_2636894015_242554443_2636894015" />
	<connection from="321639560_242554444_2636894015_3272839027" to="321639560_2636894015_242554444_2636894015" />
	<connection from="144337356_2636894010_3272862681_2636894010" to="144337356_2636894010_3272862681_4636104173" />
	<connection from="144337356_2636894010_3272862681_4636104173" to="144337356_3272862681_1597879981_3272862681" />
	<connection from="144337356_2636894010_3272862681_4636104173" to="144337356_3272862681_2636894010_3272862681" />
	<connection from="144337356_2636894010_3272862681_4636104173" to="320664267_3272862681_1597879978_3272862681" />
	<connection from="321639560_343666622_4610599207_343666622" to="321639560_343666622_4610599207_243677114" />
	<connection from="321639560_343666622_4610599207_243677114" to="321639560_343666622_4610599207_7003287592" />
	<connection from="321639560_343666622_4610599207_7003287592" to="321639560_4610599207_242554443_4610599207" />
	<connection from="321639560_343666622_4610599207_7003287592" to="748870261_4610599207_4633981368_4610599207" />
	<connection from="321639560_343666622_4610599207_7003287592" to="321639560_4610599207_343666622_4610599207" />
	<connection from="321639560_4610599207_343666622_4610599207" to="321639560_4610599207_343666622_7003287592" />
	<connection from="321639560_4610599207_343666622_7003287592" to="321639560_4610599207_343666622_243677114" />
	<connection from="321639560_4610599207_343666622_243677114" to="144337356_343666622_1597879981_343666622" />
	<connection from="321639560_4610599207_343666622_243677114" to="30915222_343666622_649742206_343666622" />
	<connection from="321639560_4610599207_343666622_243677114" to="22605898_343666622_243677110_343666622" />
	<connection from="321639560_4610599207_343666622_243677114" to="321639560_343666622_4610599207_343666622" />
	<connection from="146503525_1597879995_1597880027_1597879995" to="146503523_1597880027_1597880024_1597880027" />
	<connection from="146503525_1597879995_1597880027_1597879995" to="146503525_1597880027_1597879995_1597880027" />
	<connection from="146503525_1597879995_1597880027_1597879995" to="146503523_1597880027_1597879981_1597880027" />
	<connection from="321639560_242554443_4610599207_242554443" to="321639560_242554443_4610599207_243677115" />
	<connection from="321639560_242554443_4610599207_243677115" to="321639560_242554443_4610599207_4633981367" />
	<connection from="321639560_242554443_4610599207_4633981367" to="321639560_4610599207_242554443_4610599207" />
	<connection from="321639560_242554443_4610599207_4633981367" to="748870261_4610599207_4633981368_4610599207" />
	<connection from="321639560_242554443_4610599207_4633981367" to="321639560_4610599207_343666622_4610599207" />
	<connection from="146503291_1597877294_1597877240_1597877294" to="146503291_1597877294_1597877240_2182365760" />
	<connection from="146503291_1597877294_1597877240_2182365760" to="146503291_1597877294_1597877240_1597877275" />
	<connection from="146503291_1597877294_1597877240_1597877275" to="146503291_1597877294_1597877240_2182365754" />
	<connection from="146503291_1597877294_1597877240_2182365754" to="146503291_1597877294_1597877240_1597877243" />
	<connection from="146503291_1597877294_1597877240_1597877243" to="146503291_1597877294_1597877240_1597877252" />
	<connection from="146503291_1597877294_1597877240_1597877252" to="146503291_1597877294_1597877240_1597877290" />
	<connection from="738683242_6917130971_343667955_6917130971" to="146503294_343667955_5497744964_343667955" />
	<connection from="738683242_6917130971_343667955_6917130971" to="321639564_343667955_242554444_343667955" />
	<connection from="738683242_6917130971_343667955_6917130971" to="738683242_343667955_6917130971_343667955" />
	<connection from="738683242_6917130971_343667955_6917130971" to="484226110_343667955_343668422_343667955" />
	<connection from="572210063_5497744964_5497744965_5497744964" to="572210063_5497744965_5497744964_5497744965" />
	<connection from="572210063_5497744964_5497744965_5497744964" to="146503288_5497744965_343668422_5497744965" />
	<connection from="572210063_5497744964_5497744965_5497744964" to="146503288_5497744965_1597877268_5497744965" />
	<connection from="30915222_343666622_649742206_343666622" to="30915222_343666622_649742206_4775656671" />
	<connection from="30915222_343666622_649742206_4775656671" to="30915222_343666622_649742206_4775656669" />
	<connection from="30915222_343666622_649742206_4775656669" to="30915222_343666622_649742206_4775656670" />
	<connection from="30915222_343666622_649742206_4775656670" to="30915222_343666622_649742206_4775656668" />
	<connection from="30915222_343666622_649742206_4775656668" to="30915222_343666622_649742206_343666525" />
	<connection from="30915222_343666622_649742206_343666525" to="448580567_649742206_343667008_649742206" />
	<connection from="30915222_343666622_649742206_343666525" to="30915222_649742206_4633981368_649742206" />
	<connection from="321639560_2636894015_242554443_2636894015" to="468956790_242554443_4633981368_242554443" />
	<connection from="321639560_2636894015_242554443_2636894015" to="321639560_242554443_4610599207_242554443" />
	<connection from="321639560_2636894015_242554443_2636894015" to="321639560_242554443_2636894015_242554443" />
	<connection from="321639560_2636894015_242554444_2636894015" to="321639560_2636894015_242554444_3272839027" />
	<connection from="321639560_2636894015_242554444_3272839027" to="321639560_2636894015_242554444_4633981366" />
	<connection from="321639560_2636894015_242554444_4633981366" to="321639560_2636894015_242554444_3272839026" />
	<connection from="321639560_2636894015_242554444_3272839026" to="321639564_242554444_343667955_242554444" />
	<connection from="321639560_2636894015_242554444_3272839026" to="321639560_242554444_2636894015_242554444" />
	<connection from="321639560_2636894015_242554444_3272839026" to="321639557_242554444_242137472_242554444" />
	<connection from="321639560_4610599207_242554443_4610599207" to="321639560_4610599207_242554443_4633981367" />
	<connection from="321639560_4610599207_242554443_4633981367" to="321639560_4610599207_242554443_243677115" />
	<connection from="321639560_4610599207_242554443_243677115" to="468956790_242554443_4633981368_242554443" />
	<connection from="321639560_4610599207_242554443_243677115" to="321639560_242554443_4610599207_242554443" />
	<connection from="321639560_4610599207_242554443_243677115" to="321639560_242554443_2636894015_242554443" />
	<connection from="146503529_1597880019_1597879995_1597880019" to="146503529_1597880019_1597879995_1597880014" />
	<connection from="146503529_1597880019_1597879995_1597880014" to="146503525_1597879995_1597880027_1597879995" />
	<connection from="146503529_1597880019_1597879995_1597880014" to="146503522_1597879995_1597879978_1597879995" />
	<connection from="263996568_2696739607_1597877293_2696739607" to="263996568_2696739607_1597877293_4636104153" />
	<connection from="263996568_2696739607_1597877293_4636104153" to="146503289_1597877293_343668304_1597877293" />
	<connection from="263996568_2696739607_1597877293_4636104153" to="263996568_1597877293_2696739607_1597877293" />
	<connection from="263996568_2696739607_1597877293_4636104153" to="146503291_1597877293_1597877294_1597877293" />
	<connection from="146503522_1597879995_1597879978_1597879995" to="146503524_1597879978_1597880019_1597879978" />
	<connection from="146503522_1597879995_1597879978_1597879995" to="320664267_1597879978_3272862681_1597879978" />
	<connection from="146503522_1597879995_1597879978_1597879995" to="146503531_1597879978_1597880019_1597879978" />
	<connection from="448580567_649742206_343667008_649742206" to="448580567_343667008_649742206_343667008" />
	<connection from="572210063_5497744965_5497744964_5497744965" to="738676777_5497744964_6917090034_5497744964" />
	<connection from="572210063_5497744965_5497744964_5497744965" to="146503294_5497744964_343667955_5497744964" />
	<connection from="572210063_5497744965_5497744964_5497744965" to="146503294_5497744964_343669557_5497744964" />
	<connection from="572210063_5497744965_5497744964_5497744965" to="572210063_5497744964_5497744965_5497744964" />
	<connection from="207601494_2696739604_2696739607_2696739604" to="207601494_2696739607_2696739609_2696739607" />
	<connection from="207601494_2696739604_2696739607_2696739604" to="263996568_2696739607_1597877293_2696739607" />
	<connection from="207601494_2696739604_2696739607_2696739604" to="207601494_2696739607_2696739604_2696739607" />
	<connection from="146503291_1597877293_1597877294_1597877293" to="146503291_1597877293_1597877294_2182365776" />
	<connection from="146503291_1597877293_1597877294_2182365776" to="146503294_1597877294_343669557_1597877294" />
	<connection from="146503291_1597877293_1597877294_2182365776" to="22605736_1597877294_242554076_1597877294" />
	<connection from="146503291_1597877293_1597877294_2182365776" to="146503291_1597877294_1597877240_1597877294" />
	<connection from="22605741_242554190_242554076_242554190" to="22605741_242554190_242554076_2182365739" />
	<connection from="22605741_242554190_242554076_2182365739" to="22605741_242554190_242554076_343670375" />
	<connection from="22605741_242554190_242554076_343670375" to="22605741_242554190_242554076_343670249" />
	<connection from="22605741_242554190_242554076_343670249" to="22605741_242554190_242554076_2182365752" />
	<connection from="22605741_242554190_242554076_2182365752" to="22605741_242554190_242554076_242554105" />
	<connection from="22605741_242554190_242554076_242554105" to="22605741_242554190_242554076_2182365757" />
	<connection from="22605741_242554190_242554076_2182365757" to="22605741_242554076_343668305_242554076" />
	<connection from="22605741_242554190_242554076_2182365757" to="22605736_242554076_1597877294_242554076" />
	<connection from="22605741_242554190_242554076_2182365757" to="22605736_242554076_242554077_242554076" />
	<connection from="320664267_3272862681_1597879978_3272862681" to="146503524_1597879978_1597880019_1597879978" />
	<connection from="320664267_3272862681_1597879978_3272862681" to="320664267_1597879978_3272862681_1597879978" />
	<connection from="320664267_3272862681_1597879978_3272862681" to="146503531_1597879978_1597880019_1597879978" />
	<connection from="321639557_242554444_242137472_242554444" to="321639557_242554444_242137472_4605454428" />
	<connection from="321639557_242554444_242137472_4605454428" to="321639557_242554444_242137472_242554445" />
	<connection from="321639557_242554444_242137472_242554445" to="321639557_242554444_242137472_4610598604" />
	<connection from="321639557_242554444_242137472_4610598604" to="321639557_242554444_242137472_4605454429" />
	<connection from="321639557_242554444_242137472_4605454429" to="321639557_242137472_242554444_242137472" />
	<connection from="146503294_343669557_1597877294_343669557" to="146503294_343669557_1597877294_2182365793" />
	<connection from="146503294_343669557_1597877294_2182365793" to="146503294_1597877294_343669557_1597877294" />
	<connection from="146503294_343669557_1597877294_2182365793" to="22605736_1597877294_242554076_1597877294" />
	<connection from="146503294_343669557_1597877294_2182365793" to="146503291_1597877294_1597877240_1597877294" />
	<connection from="146503288_5497744965_1597877268_5497744965" to="146503288_5497744965_1597877268_1597877266" />
	<connection from="146503288_5497744965_1597877268_1597877266" to="146503291_1597877268_1597877293_1597877268" />
	<connection from="146503288_5497744965_1597877268_1597877266" to="146503288_1597877268_5497744965_1597877268" />
	<connection from="146503294_343667955_5497744964_343667955" to="738676777_5497744964_6917090034_5497744964" />
	<connection from="146503294_343667955_5497744964_343667955" to="146503294_5497744964_343667955_5497744964" />
	<connection from="146503294_343667955_5497744964_343667955" to="146503294_5497744964_343669557_5497744964" />
	<connection from="146503294_343667955_5497744964_343667955" to="572210063_5497744964_5497744965_5497744964" />
	<connection from="146503294_5497744964_343667955_5497744964" to="146503294_343667955_5497744964_343667955" />
	<connection from="146503294_5497744964_343667955_5497744964" to="321639564_343667955_242554444_343667955" />
	<connection from="146503294_5497744964_343667955_5497744964" to="738683242_343667955_6917130971_343667955" />
	<connection from="146503294_5497744964_343667955_5497744964" to="484226110_343667955_343668422_343667955" />
	<connection from="738683242_343667955_6917130971_343667955" to="738683242_6917130971_343667955_6917130971" />
	<connection from="321639564_242554444_343667955_242554444" to="321639564_242554444_343667955_4636104154" />
	<connection from="321639564_242554444_343667955_4636104154" to="321639564_242554444_343667955_4636104155" />
	<connection from="321639564_242554444_343667955_4636104155" to="146503294_343667955_5497744964_343667955" />
	<connection from="321639564_242554444_343667955_4636104155" to="321639564_343667955_242554444_343667955" />
	<connection from="321639564_242554444_343667955_4636104155" to="738683242_343667955_6917130971_343667955" />
	<connection from="321639564_242554444_343667955_4636104155" to="484226110_343667955_343668422_343667955" />
	<connection from="22605741_343668305_343668304_343668305" to="146503289_343668304_1597877293_343668304" />
	<connection from="22605741_343668305_343668304_343668305" to="22605741_343668304_1597877268_343668304" />
	<connection from="39830631_343668305_343668215_343668305" to="39830631_343668305_343668215_2182365801" />
	<connection from="39830631_343668305_343668215_2182365801" to="39830631_343668305_343668215_3758270234" />
	<connection from="39830631_343668305_343668215_3758270234" to="39830631_343668305_343668215_343668306" />
	<connection from="39830631_343668305_343668215_343668306" to="39830631_343668305_343668215_3758270233" />
	<connection from="39830631_343668305_343668215_3758270233" to="39830631_343668305_343668215_3758270232" />
	<connection from="144337356_343666622_1597879981_343666622" to="144337356_343666622_1597879981_4636104170" />
	<connection from="144337356_343666622_1597879981_4636104170" to="144337356_343666622_1597879981_4636104169" />
	<connection from="144337356_343666622_1597879981_4636104169" to="144337356_343666622_1597879981_4636104171" />
	<connection from="144337356_343666622_1597879981_4636104171" to="144337356_343666622_1597879981_4636104172" />
	<connection from="144337356_343666622_1597879981_4636104172" to="144337356_1597879981_3272862681_1597879981" />
	<connection from="144337356_343666622_1597879981_4636104172" to="144337356_1597879981_343666622_1597879981" />
	<connection from="144337356_343666622_1597879981_4636104172" to="146503523_1597879981_1597880027_1597879981" />
	<connection from="144337356_2636894010_343668422_2636894010" to="144337356_343668422_2636894010_343668422" />
	<connection from="144337356_2636894010_343668422_2636894010" to="146503288_343668422_5497744965_343668422" />
	<connection from="144337356_2636894010_343668422_2636894010" to="484226110_343668422_343667955_343668422" />
	<connection from="22605741_242554076_343668305_242554076" to="22605741_242554076_343668305_2182365768" />
	<connection from="22605741_242554076_343668305_2182365768" to="22605741_343668305_343668304_343668305" />
	<connection from="22605741_242554076_343668305_2182365768" to="39830631_343668305_343668215_343668305" />
	<connection from="146503289_343668304_1597877293_343668304" to="146503289_1597877293_343668304_1597877293" />
	<connection from="146503289_343668304_1597877293_343668304" to="263996568_1597877293_2696739607_1597877293" />
	<connection from="146503289_343668304_1597877293_343668304" to="146503291_1597877293_1597877294_1597877293" />
	<connection from="748870261_4610599207_4633981368_4610599207" to="748870261_4610599207_4633981368_7003287591" />
	<connection from="748870261_4610599207_4633981368_7003287591" to="748870261_4610599207_4633981368_7003287586" />
	<connection from="748870261_4610599207_4633981368_7003287586" to="748870261_4610599207_4633981368_7003287587" />
	<connection from="748870261_4610599207_4633981368_7003287587" to="748870261_4610599207_4633981368_7003287588" />
	<connection from="748870261_4610599207_4633981368_7003287588" to="748870261_4610599207_4633981368_7003287589" />
	<connection from="748870261_4610599207_4633981368_7003287589" to="748870261_4610599207_4633981368_7003287590" />
	<connection from="748870261_4610599207_4633981368_7003287590" to="468956790_4633981368_242554443_4633981368" />
	<connection from="748870261_4610599207_4633981368_7003287590" to="748870261_4633981368_4610599207_4633981368" />
	<connection from="207601494_2696739609_2696739607_2696739609" to="207601494_2696739607_2696739609_2696739607" />
	<connection from="207601494_2696739609_2696739607_2696739609" to="263996568_2696739607_1597877293_2696739607" />
	<connection from="207601494_2696739609_2696739607_2696739609" to="207601494_2696739607_2696739604_2696739607" />
	<connection from="146503523_1597880027_1597879981_1597880027" to="146503523_1597880027_1597879981_4742341995" />
	<connection from="146503523_1597880027_1597879981_4742341995" to="144337356_1597879981_3272862681_1597879981" />
	<connection from="146503523_1597880027_1597879981_4742341995" to="144337356_1597879981_343666622_1597879981" />
	<connection from="146503523_1597880027_1597879981_4742341995" to="146503523_1597879981_1597880027_1597879981" />
	<connection from="146503523_1597879981_1597880027_1597879981" to="146503523_1597879981_1597880027_4742341995" />
	<connection from="146503523_1597879981_1597880027_4742341995" to="146503523_1597880027_1597880024_1597880027" />
	<connection from="146503523_1597879981_1597880027_4742341995" to="146503525_1597880027_1597879995_1597880027" />
	<connection from="146503523_1597879981_1597880027_4742341995" to="146503523_1597880027_1597879981_1597880027" />
	<connection from="146503288_343668422_5497744965_343668422" to="572210063_5497744965_5497744964_5497744965" />
	<connection from="146503288_343668422_5497744965_343668422" to="146503288_5497744965_343668422_5497744965" />
	<connection from="146503288_343668422_5497744965_343668422" to="146503288_5497744965_1597877268_5497744965" />
	<connection from="319422982_343669557_6917090035_343669557" to="738676778_6917090035_4636104166_6917090035" />
	<connection from="319422982_343669557_6917090035_343669557" to="319422982_6917090035_343669557_6917090035" />
	<connection from="258310624_2636894010_2636894015_2636894010" to="258310624_2636894015_2636894010_2636894015" />
	<connection from="258310624_2636894010_2636894015_2636894010" to="321639560_2636894015_242554443_2636894015" />
	<connection from="258310624_2636894010_2636894015_2636894010" to="321639560_2636894015_242554444_2636894015" />
	<connection from="484226110_343668422_343667955_343668422" to="146503294_343667955_5497744964_343667955" />
	<connection from="484226110_343668422_343667955_343668422" to="321639564_343667955_242554444_343667955" />
	<connection from="484226110_343668422_343667955_343668422" to="738683242_343667955_6917130971_343667955" />
	<connection from="484226110_343668422_343667955_343668422" to="484226110_343667955_343668422_343667955" />
	<connection from="738676778_6917090035_4636104166_6917090035" to="738676778_4636104166_6917090035_4636104166" />
	<connection from="146503523_1597880024_1597880027_1597880024" to="146503523_1597880024_1597880027_1597880008" />
	<connection from="146503523_1597880024_1597880027_1597880008" to="146503523_1597880024_1597880027_4742341996" />
	<connection from="146503523_1597880024_1597880027_4742341996" to="146503523_1597880024_1597880027_4742341997" />
	<connection from="146503523_1597880024_1597880027_4742341997" to="146503523_1597880024_1597880027_1597880016" />
	<connection from="146503523_1597880024_1597880027_1597880016" to="146503523_1597880027_1597880024_1597880027" />
	<connection from="146503523_1597880024_1597880027_1597880016" to="146503525_1597880027_1597879995_1597880027" />
	<connection from="146503523_1597880024_1597880027_1597880016" to="146503523_1597880027_1597879981_1597880027" />
	<connection from="321639564_343667955_242554444_343667955" to="321639564_343667955_242554444_4636104155" />
	<connection from="321639564_343667955_242554444_4636104155" to="321639564_343667955_242554444_4636104154" />
	<connection from="321639564_343667955_242554444_4636104154" to="321639564_242554444_343667955_242554444" />
	<connection from="321639564_343667955_242554444_4636104154" to="321639560_242554444_2636894015_242554444" />
	<connection from="321639564_343667955_242554444_4636104154" to="321639557_242554444_242137472_242554444" />
	<connection from="22605741_343668304_1597877268_343668304" to="22605741_343668304_1597877268_242554104" />
	<connection from="22605741_343668304_1597877268_242554104" to="22605741_343668304_1597877268_1597877287" />
	<connection from="22605741_343668304_1597877268_1597877287" to="22605741_343668304_1597877268_1597877273" />
	<connection from="22605741_343668304_1597877268_1597877273" to="146503291_1597877268_1597877293_1597877268" />
	<connection from="22605741_343668304_1597877268_1597877273" to="146503288_1597877268_5497744965_1597877268" />
	<connection from="144337356_1597879981_343666622_1597879981" to="144337356_1597879981_343666622_4636104172" />
	<connection from="144337356_1597879981_343666622_4636104172" to="144337356_1597879981_343666622_4636104171" />
	<connection from="144337356_1597879981_343666622_4636104171" to="144337356_1597879981_343666622_4636104169" />
	<connection from="144337356_1597879981_343666622_4636104169" to="144337356_1597879981_343666622_4636104170" />
	<connection from="144337356_1597879981_343666622_4636104170" to="144337356_343666622_1597879981_343666622" />
	<connection from="144337356_1597879981_343666622_4636104170" to="30915222_343666622_649742206_343666622" />
	<connection from="144337356_1597879981_343666622_4636104170" to="22605898_343666622_243677110_343666622" />
	<connection from="144337356_1597879981_343666622_4636104170" to="321639560_343666622_4610599207_343666622" />
	<connection from="144337356_343668422_2636894010_343668422" to="144337356_2636894010_343668422_2636894010" />
	<connection from="144337356_343668422_2636894010_343668422" to="144337356_2636894010_3272862681_2636894010" />
	<connection from="144337356_343668422_2636894010_343668422" to="258310624_2636894010_2636894015_2636894010" />
	<connection from="320664267_1597879978_3272862681_1597879978" to="144337356_3272862681_1597879981_3272862681" />
	<connection from="320664267_1597879978_3272862681_1597879978" to="144337356_3272862681_2636894010_3272862681" />
	<connection from="320664267_1597879978_3272862681_1597879978" to="320664267_3272862681_1597879978_3272862681" />
	<connection from="22605898_243677110_343666622_243677110" to="22605898_243677110_343666622_2065719206" />
	<connection from="22605898_243677110_343666622_2065719206" to="22605898_243677110_343666622_1234624460" />
	<connection from="22605898_243677110_343666622_1234624460" to="22605898_243677110_343666622_1723928911" />
	<connection from="22605898_243677110_343666622_1723928911" to="22605898_243677110_343666622_4633981370" />
	<connection from="22605898_243677110_343666622_4633981370" to="22605898_243677110_343666622_4633981369" />
	<connection from="22605898_243677110_343666622_4633981369" to="22605898_243677110_343666622_243677112" />
	<connection from="22605898_243677110_343666622_243677112" to="22605898_243677110_343666622_243677113" />
	<connection from="22605898_243677110_343666622_243677113" to="144337356_343666622_1597879981_343666622" />
	<connection from="22605898_243677110_343666622_243677113" to="30915222_343666622_649742206_343666622" />
	<connection from="22605898_243677110_343666622_243677113" to="22605898_343666622_243677110_343666622" />
	<connection from="22605898_243677110_343666622_243677113" to="321639560_343666622_4610599207_343666622" />
	<connection from="22605736_242554076_242554077_242554076" to="22605736_242554076_242554077_2182365780" />
	<connection from="22605736_242554076_242554077_2182365780" to="22605736_242554076_242554077_3758270236" />
	<connection from="22605736_242554076_242554077_3758270236" to="22605736_242554077_242554076_242554077" />
	<connection from="22605898_343666622_243677110_343666622" to="22605898_343666622_243677110_243677113" />
	<connection from="22605898_343666622_243677110_243677113" to="22605898_343666622_243677110_243677112" />
	<connection from="22605898_343666622_243677110_243677112" to="22605898_343666622_243677110_4633981369" />
	<connection from="22605898_343666622_243677110_4633981369" to="22605898_343666622_243677110_4633981370" />
	<connection from="22605898_343666622_243677110_4633981370" to="22605898_343666622_243677110_1723928911" />
	<connection from="22605898_343666622_243677110_1723928911" to="22605898_343666622_243677110_1234624460" />