<?xml version="1.0" ?>
<!-- Generated by VSimRTI -->
<routes>
	<route id="01" edges="146503294_1597877294_343669557_2182365793 146503294_343669557_1597877294_343669557 146503294_343669557_1597877294_2182365793 22605736_1597877294_242554076_1597877294 22605741_242554076_343668305_242554076 22605741_242554076_343668305_2182365768 22605741_343668305_343668304_343668305 22605741_343668304_1597877268_343668304 22605741_343668304_1597877268_242554104 22605741_343668304_1597877268_1597877287 22605741_343668304_1597877268_1597877273 146503288_1597877268_5497744965_1597877268 146503288_1597877268_5497744965_1597877266 146503288_5497744965_343668422_5497744965 144337356_343668422_2636894010_343668422 144337356_2636894010_3272862681_2636894010 144337356_2636894010_3272862681_4636104173 144337356_3272862681_1597879981_3272862681 144337356_1597879981_343666622_1597879981 144337356_1597879981_343666622_4636104172 144337356_1597879981_343666622_4636104171 144337356_1597879981_343666622_4636104169 144337356_1597879981_343666622_4636104170 30915222_343666622_649742206_343666622 30915222_343666622_649742206_4775656671 30915222_343666622_649742206_4775656669 30915222_343666622_649742206_4775656670 30915222_343666622_649742206_4775656668 30915222_343666622_649742206_343666525 448580567_649742206_343667008_649742206 448580567_343667008_649742206_343667008" />
	<route id="02" edges="30915222_649742206_4633981368_649742206 30915222_649742206_4633981368_1620509206 30915222_649742206_4633981368_4775656673 30915222_649742206_4633981368_1620509215 30915222_649742206_4633981368_4775656672 30915222_649742206_4633981368_4775656674 30915222_649742206_4633981368_1620509217 468956790_4633981368_242554443_4633981368 321639560_242554443_2636894015_242554443 321639560_2636894015_242554444_2636894015 321639560_2636894015_242554444_3272839027 321639560_2636894015_242554444_4633981366 321639560_2636894015_242554444_3272839026 321639564_242554444_343667955_242554444 321639564_242554444_343667955_4636104154 321639564_242554444_343667955_4636104155 146503294_343667955_5497744964_343667955 146503294_5497744964_343669557_5497744964 146503294_343669557_1597877294_343669557 146503294_343669557_1597877294_2182365793 146503294_1597877294_343669557_1597877294" />
	<route id="03" edges="321639557_242554444_242137472_242554444 321639557_242554444_242137472_4605454428 321639557_242554444_242137472_242554445 321639557_242554444_242137472_4610598604 321639557_242554444_242137472_4605454429 321639557_242137472_242554444_242137472 321639557_242137472_242554444_4605454429 321639557_242137472_242554444_4610598604 321639557_242137472_242554444_242554445 321639557_242137472_242554444_4605454428 321639560_242554444_2636894015_242554444 321639560_242554444_2636894015_3272839026 321639560_242554444_2636894015_4633981366 321639560_242554444_2636894015_3272839027 321639560_2636894015_242554443_2636894015 321639560_242554443_4610599207_242554443 321639560_242554443_4610599207_243677115 321639560_242554443_4610599207_4633981367 321639560_4610599207_343666622_4610599207 321639560_4610599207_343666622_7003287592 321639560_4610599207_343666622_243677114" />
	<route id="04" edges="22605898_343666622_243677110_343666622 22605898_343666622_243677110_243677113 22605898_343666622_243677110_243677112 22605898_343666622_243677110_4633981369 22605898_343666622_243677110_4633981370 22605898_343666622_243677110_1723928911 22605898_343666622_243677110_1234624460 22605898_343666622_243677110_2065719206 22605898_243677110_343666622_243677110 22605898_243677110_343666622_2065719206 22605898_243677110_343666622_1234624460 22605898_243677110_343666622_1723928911 22605898_243677110_343666622_4633981370 22605898_243677110_343666622_4633981369 22605898_243677110_343666622_243677112 22605898_243677110_343666622_243677113 321639560_343666622_4610599207_343666622 321639560_343666622_4610599207_243677114 321639560_343666622_4610599207_7003287592 321639560_4610599207_242554443_4610599207 321639560_4610599207_242554443_4633981367 321639560_4610599207_242554443_243677115 321639560_242554443_2636894015_242554443 321639560_2636894015_242554444_2636894015 321639560_2636894015_242554444_3272839027 321639560_2636894015_242554444_4633981366 321639560_2636894015_242554444_3272839026" />
	<route id="05" edges="146503288_1597877268_5497744965_1597877268 146503288_1597877268_5497744965_1597877266 146503288_5497744965_343668422_5497744965 144337356_343668422_2636894010_343668422 144337356_2636894010_3272862681_2636894010 144337356_2636894010_3272862681_4636104173 144337356_3272862681_1597879981_3272862681 144337356_1597879981_343666622_1597879981 144337356_1597879981_343666622_4636104172 144337356_1597879981_343666622_4636104171 144337356_1597879981_343666622_4636104169 144337356_1597879981_343666622_4636104170 30915222_343666622_649742206_343666622 30915222_343666622_649742206_4775656671 30915222_343666622_649742206_4775656669 30915222_343666622_649742206_4775656670" />
	<route id="06" edges="30915222_343666622_649742206_4775656668 30915222_343666622_649742206_343666525 30915222_649742206_4633981368_649742206 30915222_649742206_4633981368_1620509206 30915222_649742206_4633981368_4775656673 30915222_649742206_4633981368_1620509215 30915222_649742206_4633981368_4775656672 30915222_649742206_4633981368_4775656674 30915222_649742206_4633981368_1620509217 468956790_4633981368_242554443_4633981368 321639560_242554443_4610599207_242554443 321639560_242554443_4610599207_243677115 321639560_242554443_4610599207_4633981367 321639560_4610599207_343666622_4610599207 321639560_4610599207_343666622_7003287592 321639560_4610599207_343666622_243677114 144337356_343666622_1597879981_343666622 144337356_343666622_1597879981_4636104170 144337356_343666622_1597879981_4636104169 144337356_343666622_1597879981_4636104171 144337356_343666622_1597879981_4636104172 144337356_1597879981_3272862681_1597879981 144337356_3272862681_2636894010_3272862681 144337356_3272862681_2636894010_4636104173 144337356_2636894010_343668422_2636894010 146503288_343668422_5497744965_343668422 146503288_5497744965_1597877268_5497744965 146503288_5497744965_1597877268_1597877266" />
</routes>
