<nodes>
	<node id="4636104155" x="549736.9190" y="4601075.7185" z="0.0000" type="priority" />
	<node id="4636104154" x="549740.5805" y="4601076.8318" z="0.0000" type="priority" />
	<node id="343666525" x="549820.0802" y="4600767.7178" z="0.0000" type="priority" />
	<node id="343668304" x="549565.8477" y="4601009.6886" z="0.0000" type="priority" />
	<node id="343668306" x="549501.4034" y="4601013.2644" z="0.0000" type="priority" />
	<node id="343668305" x="549565.0852" y="4601018.6986" z="0.0000" type="priority" />
	<node id="7003287587" x="549793.4131" y="4600890.4062" z="0.0000" type="priority" />
	<node id="7003287586" x="549791.5587" y="4600889.6495" z="0.0000" type="priority" />
	<node id="1620509206" x="549878.4050" y="4600931.6189" z="0.0000" type="priority" />
	<node id="243677115" x="549778.6687" y="4600901.3514" z="0.0000" type="priority" />
	<node id="243677114" x="549776.1773" y="4600873.3111" z="0.0000" type="priority" />
	<node id="243677113" x="549713.3098" y="4600701.4079" z="0.0000" type="priority" />
	<node id="243677112" x="549703.7516" y="4600678.6149" z="0.0000" type="priority" />
	<node id="243677110" x="549681.9100" y="4600546.8981" z="0.0000" type="priority" />
	<node id="5497744964" x="549640.1799" y="4601066.9461" z="0.0000" type="priority" />
	<node id="5497744965" x="549647.5099" y="4600967.7613" z="0.0000" type="priority" />
	<node id="343668422" x="549719.3754" y="4600974.0082" z="0.0000" type="priority" />
	<node id="2182365793" x="549575.4834" y="4601061.1934" z="0.0000" type="priority" />
	<node id="1620509215" x="549876.6901" y="4600939.6231" z="0.0000" type="priority" />
	<node id="242554031" x="549502.1654" y="4601004.3210" z="0.0000" type="priority" />
	<node id="1620509217" x="549864.8805" y="4600943.4161" z="0.0000" type="priority" />
	<node id="6917090035" x="549603.4292" y="4601071.8556" z="0.0000" type="priority" />
	<node id="343670249" x="549547.5386" y="4601217.6259" z="0.0000" type="priority" />
	<node id="4636104153" x="549580.6843" y="4601011.9224" z="0.0000" type="priority" />
	<node id="6917090034" x="549637.8344" y="4601093.8871" z="0.0000" type="priority" />
	<node id="343667955" x="549710.5099" y="4601073.2157" z="0.0000" type="priority" />
	<node id="2182365801" x="549560.3346" y="4601018.2996" z="0.0000" type="priority" />
	<node id="2182365768" x="549561.8967" y="4601054.2606" z="0.0000" type="priority" />
	<node id="1597880008" x="549656.8497" y="4600877.0506" z="0.0000" type="priority" />
	<node id="343666622" x="549744.6778" y="4600787.8697" z="0.0000" type="priority" />
	<node id="242554443" x="549774.7404" y="4600924.3511" z="0.0000" type="priority" />
	<node id="242137472" x="549698.4342" y="4601214.6909" z="0.0000" type="priority" />
	<node id="343670375" x="549542.2368" y="4601276.7775" z="0.0000" type="priority" />
	<node id="242554444" x="549743.8814" y="4601078.2425" z="0.0000" type="priority" />
	<node id="242554445" x="549738.6177" y="4601099.0235" z="0.0000" type="priority" />
	<node id="1597877243" x="549555.9722" y="4601218.4056" z="0.0000" type="priority" />
	<node id="1597877240" x="549542.1714" y="4601369.9060" z="0.0000" type="priority" />
	<node id="2182365811" x="549561.4722" y="4601009.3143" z="0.0000" type="priority" />
	<node id="2696739609" x="549593.7868" y="4601024.9916" z="0.0000" type="priority" />
	<node id="2182365776" x="549570.6240" y="4601054.8092" z="0.0000" type="priority" />
	<node id="2696739607" x="549594.9370" y="4601012.9642" z="0.0000" type="priority" />
	<node id="4633981367" x="549779.2409" y="4600895.7818" z="0.0000" type="priority" />
	<node id="4636104166" x="549602.3616" y="4601091.2556" z="0.0000" type="priority" />
	<node id="2696739604" x="549596.2485" y="4600999.3170" z="0.0000" type="priority" />
	<node id="4633981368" x="549805.0676" y="4600930.7449" z="0.0000" type="priority" />
	<node id="4633981369" x="549701.4885" y="4600673.0146" z="0.0000" type="priority" />
	<node id="1597880019" x="549666.9875" y="4600899.2147" z="0.0000" type="priority" />
	<node id="7003287590" x="549805.9345" y="4600927.1870" z="0.0000" type="priority" />
	<node id="4636104169" x="549737.8390" y="4600791.5752" z="0.0000" type="priority" />
	<node id="4633981366" x="549750.8063" y="4601029.4498" z="0.0000" type="priority" />
	<node id="4775656672" x="549873.4423" y="4600942.5761" z="0.0000" type="priority" />
	<node id="1597880016" x="549662.5613" y="4600874.7473" z="0.0000" type="priority" />
	<node id="4775656671" x="549810.2566" y="4600764.0637" z="0.0000" type="priority" />
	<node id="7003287592" x="549778.2111" y="4600881.8964" z="0.0000" type="priority" />
	<node id="4775656670" x="549815.9609" y="4600764.0476" z="0.0000" type="priority" />
	<node id="1597880014" x="549668.4361" y="4600883.8476" z="0.0000" type="priority" />
	<node id="7003287591" x="549786.6564" y="4600889.4713" z="0.0000" type="priority" />
	<node id="4775656674" x="549869.5749" y="4600943.5042" z="0.0000" type="priority" />
	<node id="4775656673" x="549878.2437" y="4600935.6480" z="0.0000" type="priority" />
	<node id="4775656669" x="549813.2280" y="4600763.6957" z="0.0000" type="priority" />
	<node id="4775656668" x="549818.2448" y="4600765.4069" z="0.0000" type="priority" />
	<node id="7003287589" x="549806.1568" y="4600923.9799" z="0.0000" type="priority" />
	<node id="4605454428" x="549741.5342" y="4601089.6731" z="0.0000" type="priority" />
	<node id="7003287588" x="549794.5777" y="4600892.0352" z="0.0000" type="priority" />
	<node id="4605454429" x="549703.1908" y="4601197.2815" z="0.0000" type="priority" />
	<node id="2182365780" x="549556.4987" y="4601059.4972" z="0.0000" type="priority" />
	<node id="2636894015" x="549764.8387" y="4600963.4084" z="0.0000" type="priority" />
	<node id="4633981370" x="549699.7802" y="4600666.7854" z="0.0000" type="priority" />
	<node id="1597877252" x="549550.5700" y="4601277.5898" z="0.0000" type="priority" />
	<node id="4636104171" x="549737.1489" y="4600793.6910" z="0.0000" type="priority" />
	<node id="4636104170" x="549739.7424" y="4600790.0784" z="0.0000" type="priority" />
	<node id="4636104173" x="549720.4749" y="4600951.2443" z="0.0000" type="priority" />
	<node id="4636104172" x="549733.6234" y="4600823.5771" z="0.0000" type="priority" />
	<node id="2636894010" x="549720.1831" y="4600958.4812" z="0.0000" type="priority" />
	<node id="343669557" x="549604.0689" y="4601063.7329" z="0.0000" type="priority" />
	<node id="2065719206" x="549682.1229" y="4600553.5167" z="0.0000" type="priority" />
	<node id="1597880027" x="549712.3119" y="4600878.5990" z="0.0000" type="priority" />
	<node id="1597880024" x="549656.4214" y="4600878.7019" z="0.0000" type="priority" />
	<node id="242554105" x="549553.2269" y="4601152.0151" z="0.0000" type="priority" />
	<node id="3758270229" x="549464.8944" y="4601001.1782" z="0.0000" type="priority" />
	<node id="242554104" x="549569.9196" y="4600969.3585" z="0.0000" type="priority" />
	<node id="2182365752" x="549552.9027" y="4601159.1408" z="0.0000" type="priority" />
	<node id="1723928911" x="549696.2646" y="4600640.8809" z="0.0000" type="priority" />
	<node id="1597877268" x="549578.5192" y="4600961.8124" z="0.0000" type="priority" />
	<node id="2182365754" x="549560.9945" y="4601162.3385" z="0.0000" type="priority" />
	<node id="1597877266" x="549583.6618" y="4600962.2031" z="0.0000" type="priority" />
	<node id="649742206" x="549855.2716" y="4600866.6304" z="0.0000" type="priority" />
	<node id="242554190" x="549534.2135" y="4601369.1073" z="0.0000" type="priority" />
	<node id="2182365757" x="549553.7881" y="4601145.6017" z="0.0000" type="priority" />
	<node id="343668215" x="549454.2397" y="4601009.2877" z="0.0000" type="priority" />
	<node id="343667008" x="549907.6197" y="4600848.2295" z="0.0000" type="priority" />
	<node id="4610599207" x="549779.2664" y="4600889.6867" z="0.0000" type="priority" />
	<node id="242554077" x="549497.9193" y="4601054.2758" z="0.0000" type="priority" />
	<node id="3758270230" x="549496.0647" y="4601003.8016" z="0.0000" type="priority" />
	<node id="3758270231" x="549508.1994" y="4601004.8288" z="0.0000" type="priority" />
	<node id="242554076" x="549561.3074" y="4601059.9300" z="0.0000" type="priority" />
	<node id="3758270232" x="549463.8328" y="4601010.0530" z="0.0000" type="priority" />
	<node id="3758270233" x="549495.1194" y="4601012.7327" z="0.0000" type="priority" />
	<node id="3758270234" x="549507.3040" y="4601013.7713" z="0.0000" type="priority" />
	<node id="3758270236" x="549503.8531" y="4601054.8051" z="0.0000" type="priority" />
	<node id="1234624460" x="549686.8300" y="4600583.2154" z="0.0000" type="priority" />
	<node id="1597877275" x="549561.5821" y="4601155.7143" z="0.0000" type="priority" />
	<node id="343668214" x="549454.8351" y="4601000.2986" z="0.0000" type="priority" />
	<node id="1597877273" x="549574.7054" y="4600962.2192" z="0.0000" type="priority" />
	<node id="2182365760" x="549562.2140" y="4601148.7129" z="0.0000" type="priority" />
	<node id="3272839026" x="549748.4064" y="4601047.3085" z="0.0000" type="priority" />
	<node id="3272839027" x="549755.3807" y="4601005.8550" z="0.0000" type="priority" />
	<node id="3272862681" x="549725.2610" y="4600904.2244" z="0.0000" type="priority" />
	<node id="1597879978" x="549709.3176" y="4600902.8376" z="0.0000" type="priority" />
	<node id="4610598604" x="549711.5054" y="4601171.8139" z="0.0000" type="priority" />
	<node id="1597877287" x="549571.3356" y="4600964.7496" z="0.0000" type="priority" />
	<node id="1597879981" x="549727.9726" y="4600879.8729" z="0.0000" type="priority" />
	<node id="6917130971" x="549706.1367" y="4601099.0990" z="0.0000" type="priority" />
	<node id="1597879989" x="549707.7999" y="4600917.3271" z="0.0000" type="priority" />
	<node id="4742341997" x="549659.5496" y="4600874.9264" z="0.0000" type="priority" />
	<node id="2182365739" x="549534.6015" y="4601363.6031" z="0.0000" type="priority" />
	<node id="4742341995" x="549716.5626" y="4600878.9392" z="0.0000" type="priority" />
	<node id="4742341996" x="549657.7002" y="4600875.8685" z="0.0000" type="priority" />
	<node id="1597877290" x="549542.6497" y="4601364.6244" z="0.0000" type="priority" />
	<node id="1597877294" x="549570.0080" y="4601060.7005" z="0.0000" type="priority" />
	<node id="1597877293" x="549574.6218" y="4601010.7038" z="0.0000" type="priority" />
	<node id="1597879995" x="549711.2483" y="4600887.7069" z="0.0000" type="priority" />
	<node id="1597879992" x="549665.8847" y="4600914.0291" z="0.0000" type="priority" />
</nodes>
