<edges>
	<edge id="321639557_242137472_242554444_242137472" from="242137472" to="4605454429" numLanes="1" speed="13.89" />
	<edge id="321639557_242137472_242554444_4605454429" from="4605454429" to="4610598604" numLanes="1" speed="13.89" />
	<edge id="321639557_242137472_242554444_4610598604" from="4610598604" to="242554445" numLanes="1" speed="13.89" />
	<edge id="321639557_242137472_242554444_242554445" from="242554445" to="4605454428" numLanes="1" speed="13.89" />
	<edge id="321639557_242137472_242554444_4605454428" from="4605454428" to="242554444" numLanes="1" speed="13.89" />
	<edge id="146503524_1597879978_1597880019_1597879978" from="1597879978" to="1597880019" numLanes="1" speed="5.56" />
	<edge id="146503524_1597880019_1597879978_1597880019" from="1597880019" to="1597879978" numLanes="1" speed="5.56" />
	<edge id="146503294_5497744964_343669557_5497744964" from="5497744964" to="343669557" numLanes="1" speed="8.33" />
	<edge id="738676777_5497744964_6917090034_5497744964" from="5497744964" to="6917090034" numLanes="1" speed="8.33" />
	<edge id="258310624_2636894015_2636894010_2636894015" from="2636894015" to="2636894010" numLanes="1" speed="8.33" />
	<edge id="738676777_6917090034_5497744964_6917090034" from="6917090034" to="5497744964" numLanes="1" speed="8.33" />
	<edge id="748870261_4633981368_4610599207_4633981368" from="4633981368" to="7003287590" numLanes="1" speed="5.56" />
	<edge id="748870261_4633981368_4610599207_7003287590" from="7003287590" to="7003287589" numLanes="1" speed="5.56" />
	<edge id="748870261_4633981368_4610599207_7003287589" from="7003287589" to="7003287588" numLanes="1" speed="5.56" />
	<edge id="748870261_4633981368_4610599207_7003287588" from="7003287588" to="7003287587" numLanes="1" speed="5.56" />
	<edge id="748870261_4633981368_4610599207_7003287587" from="7003287587" to="7003287586" numLanes="1" speed="5.56" />
	<edge id="748870261_4633981368_4610599207_7003287586" from="7003287586" to="7003287591" numLanes="1" speed="5.56" />
	<edge id="748870261_4633981368_4610599207_7003287591" from="7003287591" to="4610599207" numLanes="1" speed="5.56" />
	<edge id="146503289_1597877293_343668304_1597877293" from="1597877293" to="343668304" numLanes="1" speed="8.33" />
	<edge id="144337356_3272862681_1597879981_3272862681" from="3272862681" to="1597879981" numLanes="1" speed="13.89" />
	<edge id="146503525_1597880027_1597879995_1597880027" from="1597880027" to="1597879995" numLanes="1" speed="5.56" />
	<edge id="321639560_242554444_2636894015_242554444" from="242554444" to="3272839026" numLanes="1" speed="13.89" />
	<edge id="321639560_242554444_2636894015_3272839026" from="3272839026" to="4633981366" numLanes="1" speed="13.89" />
	<edge id="321639560_242554444_2636894015_4633981366" from="4633981366" to="3272839027" numLanes="1" speed="13.89" />
	<edge id="321639560_242554444_2636894015_3272839027" from="3272839027" to="2636894015" numLanes="1" speed="13.89" />
	<edge id="144337356_2636894010_3272862681_2636894010" from="2636894010" to="4636104173" numLanes="1" speed="13.89" />
	<edge id="144337356_2636894010_3272862681_4636104173" from="4636104173" to="3272862681" numLanes="1" speed="13.89" />
	<edge id="321639560_343666622_4610599207_343666622" from="343666622" to="243677114" numLanes="1" speed="13.89" />
	<edge id="321639560_343666622_4610599207_243677114" from="243677114" to="7003287592" numLanes="1" speed="13.89" />
	<edge id="321639560_343666622_4610599207_7003287592" from="7003287592" to="4610599207" numLanes="1" speed="13.89" />
	<edge id="321639560_4610599207_343666622_4610599207" from="4610599207" to="7003287592" numLanes="1" speed="13.89" />
	<edge id="321639560_4610599207_343666622_7003287592" from="7003287592" to="243677114" numLanes="1" speed="13.89" />
	<edge id="321639560_4610599207_343666622_243677114" from="243677114" to="343666622" numLanes="1" speed="13.89" />
	<edge id="146503525_1597879995_1597880027_1597879995" from="1597879995" to="1597880027" numLanes="1" speed="5.56" />
	<edge id="321639560_242554443_4610599207_242554443" from="242554443" to="243677115" numLanes="1" speed="13.89" />
	<edge id="321639560_242554443_4610599207_243677115" from="243677115" to="4633981367" numLanes="1" speed="13.89" />
	<edge id="321639560_242554443_4610599207_4633981367" from="4633981367" to="4610599207" numLanes="1" speed="13.89" />
	<edge id="146503291_1597877294_1597877240_1597877294" from="1597877294" to="2182365760" numLanes="1" speed="13.89" />
	<edge id="146503291_1597877294_1597877240_2182365760" from="2182365760" to="1597877275" numLanes="1" speed="13.89" />
	<edge id="146503291_1597877294_1597877240_1597877275" from="1597877275" to="2182365754" numLanes="1" speed="13.89" />
	<edge id="146503291_1597877294_1597877240_2182365754" from="2182365754" to="1597877243" numLanes="1" speed="13.89" />
	<edge id="146503291_1597877294_1597877240_1597877243" from="1597877243" to="1597877252" numLanes="1" speed="13.89" />
	<edge id="146503291_1597877294_1597877240_1597877252" from="1597877252" to="1597877290" numLanes="1" speed="13.89" />
	<edge id="146503291_1597877294_1597877240_1597877290" from="1597877290" to="1597877240" numLanes="1" speed="13.89" />
	<edge id="738683242_6917130971_343667955_6917130971" from="6917130971" to="343667955" numLanes="1" speed="5.56" />
	<edge id="572210063_5497744964_5497744965_5497744964" from="5497744964" to="5497744965" numLanes="1" speed="8.33" />
	<edge id="30915222_343666622_649742206_343666622" from="343666622" to="4775656671" numLanes="2" speed="8.33" />
	<edge id="30915222_343666622_649742206_4775656671" from="4775656671" to="4775656669" numLanes="2" speed="8.33" />
	<edge id="30915222_343666622_649742206_4775656669" from="4775656669" to="4775656670" numLanes="2" speed="8.33" />
	<edge id="30915222_343666622_649742206_4775656670" from="4775656670" to="4775656668" numLanes="2" speed="8.33" />
	<edge id="30915222_343666622_649742206_4775656668" from="4775656668" to="343666525" numLanes="2" speed="8.33" />
	<edge id="30915222_343666622_649742206_343666525" from="343666525" to="649742206" numLanes="2" speed="8.33" />
	<edge id="321639560_2636894015_242554443_2636894015" from="2636894015" to="242554443" numLanes="1" speed="13.89" />
	<edge id="321639560_2636894015_242554444_2636894015" from="2636894015" to="3272839027" numLanes="1" speed="13.89" />
	<edge id="321639560_2636894015_242554444_3272839027" from="3272839027" to="4633981366" numLanes="1" speed="13.89" />
	<edge id="321639560_2636894015_242554444_4633981366" from="4633981366" to="3272839026" numLanes="1" speed="13.89" />
	<edge id="321639560_2636894015_242554444_3272839026" from="3272839026" to="242554444" numLanes="1" speed="13.89" />
	<edge id="321639560_4610599207_242554443_4610599207" from="4610599207" to="4633981367" numLanes="1" speed="13.89" />
	<edge id="321639560_4610599207_242554443_4633981367" from="4633981367" to="243677115" numLanes="1" speed="13.89" />
	<edge id="321639560_4610599207_242554443_243677115" from="243677115" to="242554443" numLanes="1" speed="13.89" />
	<edge id="146503529_1597880019_1597879995_1597880019" from="1597880019" to="1597880014" numLanes="1" speed="5.56" />
	<edge id="146503529_1597880019_1597879995_1597880014" from="1597880014" to="1597879995" numLanes="1" speed="5.56" />
	<edge id="263996568_2696739607_1597877293_2696739607" from="2696739607" to="4636104153" numLanes="1" speed="5.56" />
	<edge id="263996568_2696739607_1597877293_4636104153" from="4636104153" to="1597877293" numLanes="1" speed="5.56" />
	<edge id="146503522_1597879995_1597879978_1597879995" from="1597879995" to="1597879978" numLanes="1" speed="5.56" />
	<edge id="448580567_649742206_343667008_649742206" from="649742206" to="343667008" numLanes="1" speed="8.33" />
	<edge id="572210063_5497744965_5497744964_5497744965" from="5497744965" to="5497744964" numLanes="1" speed="8.33" />
	<edge id="207601494_2696739604_2696739607_2696739604" from="2696739604" to="2696739607" numLanes="1" speed="5.56" />
	<edge id="146503291_1597877293_1597877294_1597877293" from="1597877293" to="2182365776" numLanes="1" speed="13.89" />
	<edge id="146503291_1597877293_1597877294_2182365776" from="2182365776" to="1597877294" numLanes="1" speed="13.89" />
	<edge id="22605741_242554190_242554076_242554190" from="242554190" to="2182365739" numLanes="1" speed="13.89" />
	<edge id="22605741_242554190_242554076_2182365739" from="2182365739" to="343670375" numLanes="1" speed="13.89" />
	<edge id="22605741_242554190_242554076_343670375" from="343670375" to="343670249" numLanes="1" speed="13.89" />
	<edge id="22605741_242554190_242554076_343670249" from="343670249" to="2182365752" numLanes="1" speed="13.89" />
	<edge id="22605741_242554190_242554076_2182365752" from="2182365752" to="242554105" numLanes="1" speed="13.89" />
	<edge id="22605741_242554190_242554076_242554105" from="242554105" to="2182365757" numLanes="1" speed="13.89" />
	<edge id="22605741_242554190_242554076_2182365757" from="2182365757" to="242554076" numLanes="1" speed="13.89" />
	<edge id="320664267_3272862681_1597879978_3272862681" from="3272862681" to="1597879978" numLanes="1" speed="5.56" />
	<edge id="321639557_242554444_242137472_242554444" from="242554444" to="4605454428" numLanes="1" speed="13.89" />
	<edge id="321639557_242554444_242137472_4605454428" from="4605454428" to="242554445" numLanes="1" speed="13.89" />
	<edge id="321639557_242554444_242137472_242554445" from="242554445" to="4610598604" numLanes="1" speed="13.89" />
	<edge id="321639557_242554444_242137472_4610598604" from="4610598604" to="4605454429" numLanes="1" speed="13.89" />
	<edge id="321639557_242554444_242137472_4605454429" from="4605454429" to="242137472" numLanes="1" speed="13.89" />
	<edge id="146503294_343669557_1597877294_343669557" from="343669557" to="2182365793" numLanes="1" speed="8.33" />
	<edge id="146503294_343669557_1597877294_2182365793" from="2182365793" to="1597877294" numLanes="1" speed="8.33" />
	<edge id="146503288_5497744965_1597877268_5497744965" from="5497744965" to="1597877266" numLanes="1" speed="13.89" />
	<edge id="146503288_5497744965_1597877268_1597877266" from="1597877266" to="1597877268" numLanes="1" speed="13.89" />
	<edge id="146503294_343667955_5497744964_343667955" from="343667955" to="5497744964" numLanes="1" speed="8.33" />
	<edge id="146503294_5497744964_343667955_5497744964" from="5497744964" to="343667955" numLanes="1" speed="8.33" />
	<edge id="738683242_343667955_6917130971_343667955" from="343667955" to="6917130971" numLanes="1" speed="5.56" />
	<edge id="321639564_242554444_343667955_242554444" from="242554444" to="4636104154" numLanes="1" speed="8.33" />
	<edge id="321639564_242554444_343667955_4636104154" from="4636104154" to="4636104155" numLanes="1" speed="8.33" />
	<edge id="321639564_242554444_343667955_4636104155" from="4636104155" to="343667955" numLanes="1" speed="8.33" />
	<edge id="22605741_343668305_343668304_343668305" from="343668305" to="343668304" numLanes="1" speed="13.89" />
	<edge id="39830631_343668305_343668215_343668305" from="343668305" to="2182365801" numLanes="2" speed="8.33" />
	<edge id="39830631_343668305_343668215_2182365801" from="2182365801" to="3758270234" numLanes="2" speed="8.33" />
	<edge id="39830631_343668305_343668215_3758270234" from="3758270234" to="343668306" numLanes="2" speed="8.33" />
	<edge id="39830631_343668305_343668215_343668306" from="343668306" to="3758270233" numLanes="2" speed="8.33" />
	<edge id="39830631_343668305_343668215_3758270233" from="3758270233" to="3758270232" numLanes="2" speed="8.33" />
	<edge id="39830631_343668305_343668215_3758270232" from="3758270232" to="343668215" numLanes="2" speed="8.33" />
	<edge id="144337356_343666622_1597879981_343666622" from="343666622" to="4636104170" numLanes="1" speed="13.89" />
	<edge id="144337356_343666622_1597879981_4636104170" from="4636104170" to="4636104169" numLanes="1" speed="13.89" />
	<edge id="144337356_343666622_1597879981_4636104169" from="4636104169" to="4636104171" numLanes="1" speed="13.89" />
	<edge id="144337356_343666622_1597879981_4636104171" from="4636104171" to="4636104172" numLanes="1" speed="13.89" />
	<edge id="144337356_343666622_1597879981_4636104172" from="4636104172" to="1597879981" numLanes="1" speed="13.89" />
	<edge id="144337356_2636894010_343668422_2636894010" from="2636894010" to="343668422" numLanes="1" speed="13.89" />
	<edge id="22605741_242554076_343668305_242554076" from="242554076" to="2182365768" numLanes="1" speed="13.89" />
	<edge id="22605741_242554076_343668305_2182365768" from="2182365768" to="343668305" numLanes="1" speed="13.89" />
	<edge id="146503289_343668304_1597877293_343668304" from="343668304" to="1597877293" numLanes="1" speed="8.33" />
	<edge id="748870261_4610599207_4633981368_4610599207" from="4610599207" to="7003287591" numLanes="1" speed="5.56" />
	<edge id="748870261_4610599207_4633981368_7003287591" from="7003287591" to="7003287586" numLanes="1" speed="5.56" />
	<edge id="748870261_4610599207_4633981368_7003287586" from="7003287586" to="7003287587" numLanes="1" speed="5.56" />
	<edge id="748870261_4610599207_4633981368_7003287587" from="7003287587" to="7003287588" numLanes="1" speed="5.56" />
	<edge id="748870261_4610599207_4633981368_7003287588" from="7003287588" to="7003287589" numLanes="1" speed="5.56" />
	<edge id="748870261_4610599207_4633981368_7003287589" from="7003287589" to="7003287590" numLanes="1" speed="5.56" />
	<edge id="748870261_4610599207_4633981368_7003287590" from="7003287590" to="4633981368" numLanes="1" speed="5.56" />
	<edge id="207601494_2696739609_2696739607_2696739609" from="2696739609" to="2696739607" numLanes="1" speed="5.56" />
	<edge id="146503523_1597880027_1597879981_1597880027" from="1597880027" to="4742341995" numLanes="1" speed="5.56" />
	<edge id="146503523_1597880027_1597879981_4742341995" from="4742341995" to="1597879981" numLanes="1" speed="5.56" />
	<edge id="146503523_1597879981_1597880027_1597879981" from="1597879981" to="4742341995" numLanes="1" speed="5.56" />
	<edge id="146503523_1597879981_1597880027_4742341995" from="4742341995" to="1597880027" numLanes="1" speed="5.56" />
	<edge id="146503288_343668422_5497744965_343668422" from="343668422" to="5497744965" numLanes="1" speed="13.89" />
	<edge id="319422982_343669557_6917090035_343669557" from="343669557" to="6917090035" numLanes="1" speed="5.56" />
	<edge id="258310624_2636894010_2636894015_2636894010" from="2636894010" to="2636894015" numLanes="1" speed="8.33" />
	<edge id="484226110_343668422_343667955_343668422" from="343668422" to="343667955" numLanes="1" speed="8.33" />
	<edge id="738676778_6917090035_4636104166_6917090035" from="6917090035" to="4636104166" numLanes="1" speed="5.56" />
	<edge id="146503523_1597880024_1597880027_1597880024" from="1597880024" to="1597880008" numLanes="1" speed="5.56" />
	<edge id="146503523_1597880024_1597880027_1597880008" from="1597880008" to="4742341996" numLanes="1" speed="5.56" />
	<edge id="146503523_1597880024_1597880027_4742341996" from="4742341996" to="4742341997" numLanes="1" speed="5.56" />
	<edge id="146503523_1597880024_1597880027_4742341997" from="4742341997" to="1597880016" numLanes="1" speed="5.56" />
	<edge id="146503523_1597880024_1597880027_1597880016" from="1597880016" to="1597880027" numLanes="1" speed="5.56" />
	<edge id="321639564_343667955_242554444_343667955" from="343667955" to="4636104155" numLanes="1" speed="8.33" />
	<edge id="321639564_343667955_242554444_4636104155" from="4636104155" to="4636104154" numLanes="1" speed="8.33" />
	<edge id="321639564_343667955_242554444_4636104154" from="4636104154" to="242554444" numLanes="1" speed="8.33" />
	<edge id="22605741_343668304_1597877268_343668304" from="343668304" to="242554104" numLanes="1" speed="13.89" />
	<edge id="22605741_343668304_1597877268_242554104" from="242554104" to="1597877287" numLanes="1" speed="13.89" />
	<edge id="22605741_343668304_1597877268_1597877287" from="1597877287" to="1597877273" numLanes="1" speed="13.89" />
	<edge id="22605741_343668304_1597877268_1597877273" from="1597877273" to="1597877268" numLanes="1" speed="13.89" />
	<edge id="144337356_1597879981_343666622_1597879981" from="1597879981" to="4636104172" numLanes="1" speed="13.89" />
	<edge id="144337356_1597879981_343666622_4636104172" from="4636104172" to="4636104171" numLanes="1" speed="13.89" />
	<edge id="144337356_1597879981_343666622_4636104171" from="4636104171" to="4636104169" numLanes="1" speed="13.89" />
	<edge id="144337356_1597879981_343666622_4636104169" from="4636104169" to="4636104170" numLanes="1" speed="13.89" />
	<edge id="144337356_1597879981_343666622_4636104170" from="4636104170" to="343666622" numLanes="1" speed="13.89" />
	<edge id="144337356_343668422_2636894010_343668422" from="343668422" to="2636894010" numLanes="1" speed="13.89" />
	<edge id="320664267_1597879978_3272862681_1597879978" from="1597879978" to="3272862681" numLanes="1" speed="5.56" />
	<edge id="22605898_243677110_343666622_243677110" from="243677110" to="2065719206" numLanes="1" speed="13.89" />
	<edge id="22605898_243677110_343666622_2065719206" from="2065719206" to="1234624460" numLanes="1" speed="13.89" />
	<edge id="22605898_243677110_343666622_1234624460" from="1234624460" to="1723928911" numLanes="1" speed="13.89" />
	<edge id="22605898_243677110_343666622_1723928911" from="1723928911" to="4633981370" numLanes="1" speed="13.89" />
	<edge id="22605898_243677110_343666622_4633981370" from="4633981370" to="4633981369" numLanes="1" speed="13.89" />
	<edge id="22605898_243677110_343666622_4633981369" from="4633981369" to="243677112" numLanes="1" speed="13.89" />
	<edge id="22605898_243677110_343666622_243677112" from="243677112" to="243677113" numLanes="1" speed="13.89" />
	<edge id="22605898_243677110_343666622_243677113" from="243677113" to="343666622" numLanes="1" speed="13.89" />
	<edge id="22605736_242554076_242554077_242554076" from="242554076" to="2182365780" numLanes="1" speed="8.33" />
	<edge id="22605736_242554076_242554077_2182365780" from="2182365780" to="3758270236" numLanes="1" speed="8.33" />
	<edge id="22605736_242554076_242554077_3758270236" from="3758270236" to="242554077" numLanes="1" speed="8.33" />
	<edge id="22605898_343666622_243677110_343666622" from="343666622" to="243677113" numLanes="1" speed="13.89" />
	<edge id="22605898_343666622_243677110_243677113" from="243677113" to="243677112" numLanes="1" speed="13.89" />
	<edge id="22605898_343666622_243677110_243677112" from="243677112" to="4633981369" numLanes="1" speed="13.89" />
	<edge id="22605898_343666622_243677110_4633981369" from="4633981369" to="4633981370" numLanes="1" speed="13.89" />
	<edge id="22605898_343666622_243677110_4633981370" from="4633981370" to="1723928911" numLanes="1" speed="13.89" />
	<edge id="22605898_343666622_243677110_1723928911" from="1723928911" to="1234624460" numLanes="1" speed="13.89" />
	<edge id="22605898_343666622_243677110_1234624460" from="1234624460" to="2065719206" numLanes="1" speed="13.89" />
	<edge id="22605898_343666622_243677110_2065719206" from="2065719206" to="243677110" numLanes="1" speed="13.89" />
	<edge id="146503294_343669557_5497744964_343669557" from="343669557" to="5497744964" numLanes="1" speed="8.33" />
	<edge id="144337356_1597879981_3272862681_1597879981" from="1597879981" to="3272862681" numLanes="1" speed="13.89" />
	<edge id="468956790_242554443_4633981368_242554443" from="242554443" to="4633981368" numLanes="1" speed="8.33" />
	<edge id="30915222_649742206_4633981368_649742206" from="649742206" to="1620509206" numLanes="2" speed="8.33" />
	<edge id="30915222_649742206_4633981368_1620509206" from="1620509206" to="4775656673" numLanes="2" speed="8.33" />
	<edge id="30915222_649742206_4633981368_4775656673" from="4775656673" to="1620509215" numLanes="2" speed="8.33" />
	<edge id="30915222_649742206_4633981368_1620509215" from="1620509215" to="4775656672" numLanes="2" speed="8.33" />
	<edge id="30915222_649742206_4633981368_4775656672" from="4775656672" to="4775656674" numLanes="2" speed="8.33" />
	<edge id="30915222_649742206_4633981368_4775656674" from="4775656674" to="1620509217" numLanes="2" speed="8.33" />
	<edge id="30915222_649742206_4633981368_1620509217" from="1620509217" to="4633981368" numLanes="2" speed="8.33" />
	<edge id="22605736_1597877294_242554076_1597877294" from="1597877294" to="242554076" numLanes="1" speed="8.33" />
	<edge id="263996568_1597877293_2696739607_1597877293" from="1597877293" to="4636104153" numLanes="1" speed="5.56" />
	<edge id="263996568_1597877293_2696739607_4636104153" from="4636104153" to="2696739607" numLanes="1" speed="5.56" />
	<edge id="146503288_1597877268_5497744965_1597877268" from="1597877268" to="1597877266" numLanes="1" speed="13.89" />
	<edge id="146503288_1597877268_5497744965_1597877266" from="1597877266" to="5497744965" numLanes="1" speed="13.89" />
	<edge id="321639560_242554443_2636894015_242554443" from="242554443" to="2636894015" numLanes="1" speed="13.89" />
	<edge id="146503288_5497744965_343668422_5497744965" from="5497744965" to="343668422" numLanes="1" speed="13.89" />
	<edge id="207601494_2696739607_2696739604_2696739607" from="2696739607" to="2696739604" numLanes="1" speed="5.56" />
	<edge id="207601494_2696739607_2696739609_2696739607" from="2696739607" to="2696739609" numLanes="1" speed="5.56" />
	<edge id="22605736_242554077_242554076_242554077" from="242554077" to="3758270236" numLanes="1" speed="8.33" />
	<edge id="22605736_242554077_242554076_3758270236" from="3758270236" to="2182365780" numLanes="1" speed="8.33" />
	<edge id="22605736_242554077_242554076_2182365780" from="2182365780" to="242554076" numLanes="1" speed="8.33" />
	<edge id="738676778_4636104166_6917090035_4636104166" from="4636104166" to="6917090035" numLanes="1" speed="5.56" />
	<edge id="146503291_1597877268_1597877293_1597877268" from="1597877268" to="1597877293" numLanes="1" speed="13.89" />
	<edge id="146503294_1597877294_343669557_1597877294" from="1597877294" to="2182365793" numLanes="1" speed="8.33" />
	<edge id="146503294_1597877294_343669557_2182365793" from="2182365793" to="343669557" numLanes="1" speed="8.33" />
	<edge id="468956790_4633981368_242554443_4633981368" from="4633981368" to="242554443" numLanes="1" speed="8.33" />
	<edge id="146503523_1597880027_1597880024_1597880027" from="1597880027" to="1597880016" numLanes="1" speed="5.56" />
	<edge id="146503523_1597880027_1597880024_1597880016" from="1597880016" to="4742341997" numLanes="1" speed="5.56" />
	<edge id="146503523_1597880027_1597880024_4742341997" from="4742341997" to="4742341996" numLanes="1" speed="5.56" />
	<edge id="146503523_1597880027_1597880024_4742341996" from="4742341996" to="1597880008" numLanes="1" speed="5.56" />
	<edge id="146503523_1597880027_1597880024_1597880008" from="1597880008" to="1597880024" numLanes="1" speed="5.56" />
	<edge id="484226110_343667955_343668422_343667955" from="343667955" to="343668422" numLanes="1" speed="8.33" />
	<edge id="22605736_242554076_1597877294_242554076" from="242554076" to="1597877294" numLanes="1" speed="8.33" />
	<edge id="144337356_3272862681_2636894010_3272862681" from="3272862681" to="4636104173" numLanes="1" speed="13.89" />
	<edge id="144337356_3272862681_2636894010_4636104173" from="4636104173" to="2636894010" numLanes="1" speed="13.89" />
	<edge id="448580567_343667008_649742206_343667008" from="343667008" to="649742206" numLanes="1" speed="8.33" />
	<edge id="30915438_343668214_343668304_343668214" from="343668214" to="3758270229" numLanes="2" speed="8.33" />
	<edge id="30915438_343668214_343668304_3758270229" from="3758270229" to="3758270230" numLanes="2" speed="8.33" />
	<edge id="30915438_343668214_343668304_3758270230" from="3758270230" to="242554031" numLanes="2" speed="8.33" />
	<edge id="30915438_343668214_343668304_242554031" from="242554031" to="3758270231" numLanes="2" speed="8.33" />
	<edge id="30915438_343668214_343668304_3758270231" from="3758270231" to="2182365811" numLanes="2" speed="8.33" />
	<edge id="30915438_343668214_343668304_2182365811" from="2182365811" to="343668304" numLanes="2" speed="8.33" />
	<edge id="319422982_6917090035_343669557_6917090035" from="6917090035" to="343669557" numLanes="1" speed="5.56" />
	<edge id="146503531_1597879978_1597880019_1597879978" from="1597879978" to="1597879989" numLanes="1" speed="5.56" />
	<edge id="146503531_1597879978_1597880019_1597879989" from="1597879989" to="1597879992" numLanes="1" speed="5.56" />
	<edge id="146503531_1597879978_1597880019_1597879992" from="1597879992" to="1597880019" numLanes="1" speed="5.56" />
</edges>
