<?xml version="1.0" ?>
<!-- Generated by VSimRTI -->
<routes>
	<vType id="default" length="7.5" maxSpeed="50" minGap="2.0" carFollowModel="Krauss" accel="0.80" decel="4.5" sigma="0.5" tau="1"/>
	<route id="11" edges="194799496_2053075892_2053074768_2053075888 194799470_2053074768_2053059886_2053074768 194798357_2053059886_2053059891_2053059886 194798357_2053059886_2053059891_2053059899 194798357_2053059886_2053059891_2053059888 194798357_2053059886_2053059891_2053059880 194798357_2053059886_2053059891_2053059893 194798357_2053059886_2053059891_2053059867 194798357_2053059891_2053059864_2053059891 194798357_2053059891_2053059864_2053059862 194798356_2053059864_2053059875_2053059864 194798356_2053059864_2053059875_2053059870 194798356_2053059864_2053059875_2053059859 194333743_2053059875_2048544091_2053059875 194333743_2053059875_2048544091_3870140521 194333743_2053059875_2048544091_2048539592 194333743_2048544091_2048539564_2048544091 194333743_2048544091_2048539564_2048539576 194333743_2048544091_2048539564_2048539562 194333743_2048539564_2048539552_2048539564 194333743_2048539552_2083542526_2048539552 194333743_2048539552_2083542526_2048539560 194333743_2048539552_2083542526_2048539550 194333743_2048539552_2083542526_2048539561 194333743_2048539552_2083542526_2048539554 194333743_2048539552_2083542526_2048539590 194333743_2048539552_2083542526_2048539567 194333743_2048539552_2083542526_2048539548 194333743_2048539552_2083542526_2048539574 194333743_2048539552_2083542526_2048539563 194333743_2083542526_2048547109_2083542526 194333743_2083542526_2048547109_2048539558 194333743_2083542526_2048547109_2048539565 194333743_2083542526_2048547109_2048539594 194333743_2083542526_2048547109_2048539556" />
	<route id="1" edges="194334427_4498269218_2048544090_2048547100 194334427_4498269218_2048544090_2048547085 194334427_4498269218_2048544090_2048547089 194334427_4498269218_2048544090_2048547114 194334427_4498269218_2048544090_2048547098 194334755_2048544090_2048544602_2048544090 194334475_2048544602_2048544098_2048544602 194334475_2048544098_2048544598_2048544098 194334475_2048544098_2048544598_2048544599 194334475_2048544098_2048544598_2048544605 194334475_2048544098_2048544598_2258008395 194334476_2048544598_2048539564_2048544598 194333743_2048539564_2048544091_2048539564 194333743_2048539564_2048544091_2048539562 194333743_2048539564_2048544091_2048539576 194333743_2048544091_2053059875_2048544091 194333743_2048544091_2053059875_2048539592 194333743_2048544091_2053059875_3870140521 194333743_2053059875_2053059896_2053059875 194333743_2053059896_2048539568_2053059896 311050748_2048539568_911175125_2048539568 311050748_2048539568_911175125_2048539584 311050748_2048539568_911175125_2048539586 194332380_911175125_2048531791_911175125 194332380_911175125_2048531791_2048531796 194332380_911175125_2048531791_2048531770 194332380_911175125_2048531791_2048531782 194332380_911175125_2048531791_2048531778 194332380_2048531791_2048531832_2048531791 194332380_2048531791_2048531832_2048531787 194332380_2048531832_2048531852_2048531832 194332380_2048531832_2048531852_2048531815 194332380_2048531852_2048531844_2048531852 194332380_2048531852_2048531844_2048531827 194332038_2048531844_898090880_2048531844 194332038_2048531844_898090880_2048527860 194332038_2048531844_898090880_2048527864 249309718_898090880_2053070913_898090880 249309718_898090880_2053070913_898090399 249309718_898090880_2053070913_898091141 249309718_898090880_2053070913_898090693 249309718_2053070913_2207832566_2053070913 249309718_2207832566_2207832565_2207832566 249309718_2207832565_2053070905_2207832565 249309718_2053070905_898090292_2053070905 249309718_2053070905_898090292_898091972 249309718_2053070905_898090292_898090924 249309718_2053070905_898090292_898090483 249309718_2053070905_898090292_898089853 249309718_2053070905_898090292_898091706 249309718_2053070905_898090292_898090750 249309718_2053070905_898090292_898090233 249309718_2053070905_898090292_898092038 249309718_2053070905_898090292_898091442 249309718_2053070905_898090292_898090549 249309718_2053070905_898090292_898089943 249309718_2053070905_898090292_898091793 249309718_2053070905_898090292_898091203 198186545_898090292_2083536984_898090292 198186545_898090292_2083536984_2083538157 198186545_898090292_2083536984_2083538165 198186436_2083536984_2083536970_2083536984 198186436_2083536984_2083536970_2083536972 198186436_2083536984_2083536970_2083536990 198186636_2083536970_2083539073_2083536970 198186636_2083536970_2083539073_2083539077 198186636_2083536970_2083539073_3165888306 198186636_2083536970_2083539073_2083539071 198186636_2083536970_2083539073_2083539079 198186755_2083539073_2083539752_2083539073 198186755_2083539752_2083539746_2083539752 198186755_2083539752_2083539746_2083539740 198186755_2083539752_2083539746_2083539732 198186755_2083539752_2083539746_2083539742 198186755_2083539752_2083539746_2083539728 198186755_2083539752_2083539746_2083539725 198186755_2083539752_2083539746_2083539748 198186755_2083539752_2083539746_2083539744 198186755_2083539746_2083539752_2083539746 198186755_2083539746_2083539752_2083539744 198186755_2083539746_2083539752_2083539748 198186755_2083539746_2083539752_2083539725 198186755_2083539746_2083539752_2083539728" />
	<route id="12" edges="194799496_2053075892_2053074768_2053075888 194799470_2053074768_2053059886_2053074768 194798357_2053059886_2053059891_2053059886 194798357_2053059886_2053059891_2053059899 194798357_2053059886_2053059891_2053059888 194798357_2053059886_2053059891_2053059880 194798357_2053059886_2053059891_2053059893 194798357_2053059886_2053059891_2053059867 194798357_2053059891_2053059864_2053059891 194798357_2053059891_2053059864_2053059862 194798356_2053059864_2053059875_2053059864 194798356_2053059864_2053059875_2053059870 194798356_2053059864_2053059875_2053059859 194333743_2053059875_2048544091_2053059875 194333743_2053059875_2048544091_3870140521 194333743_2053059875_2048544091_2048539592 194333743_2048544091_2048539564_2048544091 194333743_2048544091_2048539564_2048539576 194333743_2048544091_2048539564_2048539562 194334476_2048539564_2048544598_2048539564 194334475_2048544598_2048544098_2048544598 194334475_2048544598_2048544098_2258008395 194334475_2048544598_2048544098_2048544605 194334475_2048544598_2048544098_2048544599 194334475_2048544098_2048544602_2048544098" />
	<route id="2" edges="198186755_2083539746_2083539752_2083539742 198186755_2083539746_2083539752_2083539732 198186755_2083539746_2083539752_2083539740 198186755_2083539752_2083539073_2083539752 249309716_2083539073_2083539063_2083539073 249309716_2083539073_2083539063_3165888305 249309716_2083539073_2083539063_2083539083 249309716_2083539073_2083539063_2083539069 249309716_2083539073_2083539063_2083539081 210712569_2083539063_2083536988_2083539063 198186436_2083536988_2083536978_2083536988 198186436_2083536988_2083536978_2083536980 198186436_2083536988_2083536978_2083536992 198186436_2083536978_2083536976_2083536978 198186436_2083536978_2083536976_3165887927 198186436_2083536976_2083536968_2083536976 198186436_2083536976_2083536968_2083536986 198186436_2083536976_2083536968_2083536996 198186436_2083536968_2083536966_2083536968 194799228_2083536966_898090292_2083536966 194799228_2083536966_898090292_2207832557 249309718_898090292_2053070905_898090292 249309718_898090292_2053070905_898091203 249309718_898090292_2053070905_898091793 249309718_898090292_2053070905_898089943 249309718_898090292_2053070905_898090549 249309718_898090292_2053070905_898091442 249309718_898090292_2053070905_898092038 249309718_898090292_2053070905_898090233 249309718_898090292_2053070905_898090750 249309718_898090292_2053070905_898091706 249309718_898090292_2053070905_898089853 249309718_898090292_2053070905_898090483 249309718_898090292_2053070905_898090924 249309718_898090292_2053070905_898091972 249309718_2053070905_2207832565_2053070905 249309718_2207832565_2207832566_2207832565 249309718_2207832566_2053070913_2207832566 249309718_2053070913_898090880_2053070913 249309718_2053070913_898090880_898090693 249309718_2053070913_898090880_898091141 249309718_2053070913_898090880_898090399 311050746_898090880_2048531811_898090880 311050746_898090880_2048531811_3870140175 311050746_898090880_2048531811_2048527859 311050746_898090880_2048531811_2048527862 194333742_2048531811_2048539568_2048531811 194333742_2048531811_2048539568_2048539570 194333742_2048531811_2048539568_2048539542 194333743_2048539568_2053059896_2048539568 194333743_2053059896_2053059875_2053059896 194333743_2053059875_2048544091_2053059875 194333743_2053059875_2048544091_3870140521 194333743_2053059875_2048544091_2048539592 194333743_2048544091_2048539564_2048544091 194333743_2048544091_2048539564_2048539576 194333743_2048544091_2048539564_2048539562 194334476_2048539564_2048544598_2048539564 194334475_2048544598_2048544098_2048544598 194334475_2048544598_2048544098_2258008395 194334475_2048544598_2048544098_2048544605 194334475_2048544598_2048544098_2048544599 194334475_2048544098_2048544602_2048544098 194334755_2048544602_2048544090_2048544602 194334427_2048544090_4498269218_2048544090 194334427_2048544090_4498269218_2048547098 194334427_2048544090_4498269218_2048547114 194334427_2048544090_4498269218_2048547089 194334427_2048544090_4498269218_2048547085 194334427_2048544090_4498269218_2048547100 194334427_2048544090_4498269218_2048547103 194334427_2048544090_4498269218_2048547111 194334427_2048544090_4498269218_2048547083 194334427_2048544090_4498269218_2048547092 194334427_2048544090_4498269218_6071022608 194334427_2048544090_4498269218_2048547113 194334427_2048544090_4498269218_2048547116 194334427_2048544090_4498269218_2048547102 194334427_2048544090_4498269218_2048547094 194334427_2048544090_4498269218_2048547084 194334427_2048544090_4498269218_2048547093 194334427_2048544090_4498269218_2048547086 194334427_2048544090_4498269218_2048547077 194334427_2048544090_4498269218_2048547088 194334427_2048544090_4498269218_2048547082 194334427_2048544090_4498269218_2048547095 194334427_2048544090_4498269218_2048547110 194334427_2048544090_4498269218_2048547081 194334427_2048544090_4498269218_2048547108 194334427_2048544090_4498269218_2048547115 194334427_2048544090_4498269218_2048547087 194334427_2048544090_4498269218_2048547106 194334427_2048544090_4498269218_2048547107 194334427_2048544090_4498269218_2048547101 194334427_2048544090_4498269218_2048547080 194334427_2048544090_4498269218_2048547078 194334427_2048544090_4498269218_2048547099 194334427_2048544090_4498269218_4498269918 194334427_2048544090_4498269218_4498269202 194334427_2048544090_4498269218_4498269207 194334427_2048544090_4498269218_4498269205 194334427_2048544090_4498269218_4498269201 194334427_2048544090_4498269218_4498269241 194334427_2048544090_4498269218_4498269269 194334427_2048544090_4498269218_4498269917 194334427_2048544090_4498269218_4498269267 194334427_2048544090_4498269218_4498269237 194334427_2048544090_4498269218_4498269262 194334427_2048544090_4498269218_4498269212 194334427_2048544090_4498269218_6071550012 194334427_2048544090_4498269218_4498269243 194334427_2048544090_4498269218_6071549994 194334427_2048544090_4498269218_4498269902 194334427_2048544090_4498269218_4498269280 194334427_2048544090_4498269218_4498269279 194334427_2048544090_4498269218_4498269234 194334427_2048544090_4498269218_4498269231 194334427_2048544090_4498269218_4498269274 194334427_4498269218_2048544090_4498269218 194334427_4498269218_2048544090_4498269274 194334427_4498269218_2048544090_4498269231 194334427_4498269218_2048544090_4498269234 194334427_4498269218_2048544090_4498269279 194334427_4498269218_2048544090_4498269280 194334427_4498269218_2048544090_4498269902 194334427_4498269218_2048544090_6071549994 194334427_4498269218_2048544090_4498269243 194334427_4498269218_2048544090_6071550012 194334427_4498269218_2048544090_4498269212 194334427_4498269218_2048544090_4498269262 194334427_4498269218_2048544090_4498269237 194334427_4498269218_2048544090_4498269267 194334427_4498269218_2048544090_4498269917 194334427_4498269218_2048544090_4498269269 194334427_4498269218_2048544090_4498269241 194334427_4498269218_2048544090_4498269201 194334427_4498269218_2048544090_4498269205 194334427_4498269218_2048544090_4498269207 194334427_4498269218_2048544090_4498269202 194334427_4498269218_2048544090_4498269918 194334427_4498269218_2048544090_2048547099 194334427_4498269218_2048544090_2048547078 194334427_4498269218_2048544090_2048547080 194334427_4498269218_2048544090_2048547101 194334427_4498269218_2048544090_2048547107 194334427_4498269218_2048544090_2048547106 194334427_4498269218_2048544090_2048547087 194334427_4498269218_2048544090_2048547115 194334427_4498269218_2048544090_2048547108 194334427_4498269218_2048544090_2048547081 194334427_4498269218_2048544090_2048547110 194334427_4498269218_2048544090_2048547095 194334427_4498269218_2048544090_2048547082 194334427_4498269218_2048544090_2048547088 194334427_4498269218_2048544090_2048547077 194334427_4498269218_2048544090_2048547086 194334427_4498269218_2048544090_2048547093 194334427_4498269218_2048544090_2048547084 194334427_4498269218_2048544090_2048547094 194334427_4498269218_2048544090_2048547102 194334427_4498269218_2048544090_2048547116 194334427_4498269218_2048544090_2048547113 194334427_4498269218_2048544090_6071022608 194334427_4498269218_2048544090_2048547092 194334427_4498269218_2048544090_2048547083 194334427_4498269218_2048544090_2048547111 194334427_4498269218_2048544090_2048547103" />
	<route id="3" edges="194332381_1270711691_898091751_898090942 194332381_1270711691_898091751_898090515 311050745_898091751_2048531791_898091751 311050745_898091751_2048531791_2048531838 311050745_898091751_2048531791_2048531823 194332380_2048531791_2048531832_2048531791 194332380_2048531791_2048531832_2048531787 194332380_2048531832_2048531852_2048531832 194332380_2048531832_2048531852_2048531815 194332380_2048531852_2048531844_2048531852 194332380_2048531852_2048531844_2048531827 194332038_2048531844_898090880_2048531844 194332038_2048531844_898090880_2048527860 194332038_2048531844_898090880_2048527864 249309718_898090880_2053070913_898090880 249309718_898090880_2053070913_898090399 249309718_898090880_2053070913_898091141 249309718_898090880_2053070913_898090693 249309718_2053070913_2207832566_2053070913 249309718_2207832566_2207832565_2207832566 249309718_2207832565_2053070905_2207832565 249309718_2053070905_898090292_2053070905 249309718_2053070905_898090292_898091972 249309718_2053070905_898090292_898090924 249309718_2053070905_898090292_898090483 249309718_2053070905_898090292_898089853 249309718_2053070905_898090292_898091706 249309718_2053070905_898090292_898090750 249309718_2053070905_898090292_898090233 249309718_2053070905_898090292_898092038 249309718_2053070905_898090292_898091442 249309718_2053070905_898090292_898090549 249309718_2053070905_898090292_898089943 249309718_2053070905_898090292_898091793 249309718_2053070905_898090292_898091203 198186545_898090292_2083536984_898090292 198186545_898090292_2083536984_2083538157 198186545_898090292_2083536984_2083538165 198186436_2083536984_2083536970_2083536984 198186436_2083536984_2083536970_2083536972 198186436_2083536984_2083536970_2083536990 198186436_2083536970_2083536988_2083536970 198186436_2083536970_2083536988_2083536994 198186436_2083536970_2083536988_2083536982 198186546_2083536988_2207832561_2083536988 198186546_2207832561_898090906_2207832561 198186546_2207832561_898090906_2207832564 206312136_898090906_2083542517_898090906 206312136_2083542517_2083539723_2083542517 206312136_2083542517_2083539723_898091393 206312136_2083539723_2163156660_2083539723 206312136_2083539723_2163156660_898091740 206312136_2083539723_2163156660_898092055 206312136_2083539723_2163156660_898091468 206312136_2083539723_2163156660_898090938 206312136_2083539723_2163156660_898091546 206312136_2083539723_2163156660_898091007 206312136_2083539723_2163156660_2083545504 206312136_2083539723_2163156660_898091292 206312136_2083539723_2163156660_2083545488 206312136_2083539723_2163156660_3870142352 206312136_2083539723_2163156660_898091615 206312136_2083539723_2163156660_2083546809 206312136_2083539723_2163156660_3870144357 206312136_2083539723_2163156660_3870144359 206312136_2083539723_2163156660_3165883650 206312136_2083539723_2163156660_2053041907 206312136_2083539723_2163156660_898091612 206312136_2083539723_2163156660_2083550113 206312136_2083539723_2163156660_2053047759 206312136_2083539723_2163156660_2053047738 206312136_2083539723_2163156660_2053047735 206312136_2083539723_2163156660_898091687 206312136_2083539723_2163156660_898091140 206312136_2083539723_2163156660_898090221 206312136_2083539723_2163156660_898092028 206312136_2083539723_2163156660_2053043081 206312136_2083539723_2163156660_898089932 206312136_2083539723_2163156660_898091784 206312136_2083539723_2163156660_898091199 206312136_2083539723_2163156660_898090748 206312136_2083539723_2163156660_898090961 206312136_2083539723_2163156660_898090546 206312136_2083539723_2163156660_898091264 206312136_2083539723_2163156660_3165881673 206312136_2083539723_2163156660_3165881674 206312136_2083539723_2163156660_898090655 206312136_2083539723_2163156660_2163156838 206312136_2163156660_2083539723_2163156660 206312136_2163156660_2083539723_2163156838 206312136_2163156660_2083539723_898090655 206312136_2163156660_2083539723_3165881674 206312136_2163156660_2083539723_3165881673 206312136_2163156660_2083539723_898091264 206312136_2163156660_2083539723_898090546 206312136_2163156660_2083539723_898090961 206312136_2163156660_2083539723_898090748 206312136_2163156660_2083539723_898091199 206312136_2163156660_2083539723_898091784 206312136_2163156660_2083539723_898089932 206312136_2163156660_2083539723_2053043081 206312136_2163156660_2083539723_898092028 206312136_2163156660_2083539723_898090221 206312136_2163156660_2083539723_898091140 206312136_2163156660_2083539723_898091687 206312136_2163156660_2083539723_2053047735 206312136_2163156660_2083539723_2053047738 206312136_2163156660_2083539723_2053047759 206312136_2163156660_2083539723_2083550113 206312136_2163156660_2083539723_898091612 206312136_2163156660_2083539723_2053041907 206312136_2163156660_2083539723_3165883650 206312136_2163156660_2083539723_3870144359 206312136_2163156660_2083539723_3870144357 206312136_2163156660_2083539723_2083546809 206312136_2163156660_2083539723_898091615 206312136_2163156660_2083539723_3870142352 206312136_2163156660_2083539723_2083545488 206312136_2163156660_2083539723_898091292 206312136_2163156660_2083539723_2083545504 206312136_2163156660_2083539723_898091007 206312136_2163156660_2083539723_898091546" />
	<route id="4" edges="206312136_2163156660_2083539723_898090938 206312136_2163156660_2083539723_898091468 206312136_2163156660_2083539723_898092055 206312136_2163156660_2083539723_898091740 206312136_2083539723_2083542517_2083539723 206312136_2083539723_2083542517_898091393 206312136_2083542517_898090906_2083542517 210712568_898090906_2083536978_898090906 210712568_898090906_2083536978_2083538164 210712568_898090906_2083536978_2083538167 210712568_898090906_2083536978_2083538169 198186436_2083536978_2083536976_2083536978 198186436_2083536978_2083536976_3165887927 198186436_2083536976_2083536968_2083536976 198186436_2083536976_2083536968_2083536986 198186436_2083536976_2083536968_2083536996 198186436_2083536968_2083536966_2083536968 194799228_2083536966_898090292_2083536966 194799228_2083536966_898090292_2207832557 249309718_898090292_2053070905_898090292 249309718_898090292_2053070905_898091203 249309718_898090292_2053070905_898091793 249309718_898090292_2053070905_898089943 249309718_898090292_2053070905_898090549 249309718_898090292_2053070905_898091442 249309718_898090292_2053070905_898092038 249309718_898090292_2053070905_898090233 249309718_898090292_2053070905_898090750 249309718_898090292_2053070905_898091706 249309718_898090292_2053070905_898089853 249309718_898090292_2053070905_898090483 249309718_898090292_2053070905_898090924 249309718_898090292_2053070905_898091972 249309718_2053070905_2207832565_2053070905 249309718_2207832565_2207832566_2207832565 249309718_2207832566_2053070913_2207832566 249309718_2053070913_898090880_2053070913 249309718_2053070913_898090880_898090693 249309718_2053070913_898090880_898091141 249309718_2053070913_898090880_898090399 311050746_898090880_2048531811_898090880 311050746_898090880_2048531811_3870140175 311050746_898090880_2048531811_2048527859 311050746_898090880_2048531811_2048527862 194332380_2048531811_911175125_2048531811 194332380_2048531811_911175125_2048531848 194332380_2048531811_911175125_2048531841 194332380_2048531811_911175125_2048531808 194332379_911175125_898091751_911175125 194332379_911175125_898091751_2048531835 194332379_911175125_898091751_2048531829 194332381_898091751_1270711691_898091751 194332381_898091751_1270711691_898090515 194332381_898091751_1270711691_898090942 194332381_898091751_1270711691_2048539544 194332381_898091751_1270711691_898092007 194332381_898091751_1270711691_2048522073 194332381_898091751_1270711691_2048539588 194332381_898091751_1270711691_2048522071 194332381_898091751_1270711691_898090195 194332381_898091751_1270711691_898091177 194332381_898091751_1270711691_2048541439 194332381_898091751_1270711691_2048541447 194332381_898091751_1270711691_2501528188 194332381_898091751_1270711691_1358328962 194332381_898091751_1270711691_2501518991 194332381_898091751_1270711691_2048513204 194332381_898091751_1270711691_898091948 194332381_898091751_1270711691_2052984272 194332381_898091751_1270711691_2052999571 194332381_898091751_1270711691_2052981811 194332381_898091751_1270711691_2053012776 194332381_898091751_1270711691_1270711714 194332381_898091751_1270711691_1270711720 194332381_898091751_1270711691_1270711628 194332381_898091751_1270711691_1270711640 194332381_898091751_1270711691_1270711685 194332381_898091751_1270711691_1270711711 194332381_898091751_1270711691_1270711619 194332381_898091751_1270711691_1270711624 194332381_898091751_1270711691_1270711665 194332381_898091751_1270711691_1270711677 194332381_898091751_1270711691_1270711717 194332381_898091751_1270711691_1270711724 194332381_898091751_1270711691_1270711632 194332381_898091751_1270711691_2063481015 194332381_898091751_1270711691_1270711675 194332381_1270711691_898091751_1270711691 194332381_1270711691_898091751_1270711675 194332381_1270711691_898091751_2063481015 194332381_1270711691_898091751_1270711632 194332381_1270711691_898091751_1270711724 194332381_1270711691_898091751_1270711717 194332381_1270711691_898091751_1270711677 194332381_1270711691_898091751_1270711665 194332381_1270711691_898091751_1270711624 194332381_1270711691_898091751_1270711619 194332381_1270711691_898091751_1270711711 194332381_1270711691_898091751_1270711685 194332381_1270711691_898091751_1270711640 194332381_1270711691_898091751_1270711628 194332381_1270711691_898091751_1270711720 194332381_1270711691_898091751_1270711714 194332381_1270711691_898091751_2053012776 194332381_1270711691_898091751_2052981811 194332381_1270711691_898091751_2052999571 194332381_1270711691_898091751_2052984272 194332381_1270711691_898091751_898091948 194332381_1270711691_898091751_2048513204 194332381_1270711691_898091751_2501518991 194332381_1270711691_898091751_1358328962 194332381_1270711691_898091751_2501528188 194332381_1270711691_898091751_2048541447 194332381_1270711691_898091751_2048541439 194332381_1270711691_898091751_898091177 194332381_1270711691_898091751_898090195 194332381_1270711691_898091751_2048522071 194332381_1270711691_898091751_2048539588 194332381_1270711691_898091751_2048522073 194332381_1270711691_898091751_898092007 194332381_1270711691_898091751_2048539544" />
	<route id="5" edges="194332381_1270711691_898091751_898090942 194332381_1270711691_898091751_898090515 311050745_898091751_2048531791_898091751 311050745_898091751_2048531791_2048531838 311050745_898091751_2048531791_2048531823 194332380_2048531791_2048531832_2048531791 194332380_2048531791_2048531832_2048531787 194332380_2048531832_2048531852_2048531832 194332380_2048531832_2048531852_2048531815 194332380_2048531852_2048531844_2048531852 194332380_2048531852_2048531844_2048531827 194332038_2048531844_898090880_2048531844 194332038_2048531844_898090880_2048527860 194332038_2048531844_898090880_2048527864 249309718_898090880_2053070913_898090880 249309718_898090880_2053070913_898090399 249309718_898090880_2053070913_898091141 249309718_898090880_2053070913_898090693 249309718_2053070913_2207832566_2053070913 249309718_2207832566_2207832565_2207832566 249309718_2207832565_2053070905_2207832565 249309718_2053070905_898090292_2053070905 249309718_2053070905_898090292_898091972 249309718_2053070905_898090292_898090924 249309718_2053070905_898090292_898090483 249309718_2053070905_898090292_898089853 249309718_2053070905_898090292_898091706 249309718_2053070905_898090292_898090750 249309718_2053070905_898090292_898090233 249309718_2053070905_898090292_898092038 249309718_2053070905_898090292_898091442 249309718_2053070905_898090292_898090549 249309718_2053070905_898090292_898089943 249309718_2053070905_898090292_898091793 249309718_2053070905_898090292_898091203 198186545_898090292_2083536984_898090292 198186545_898090292_2083536984_2083538157 198186545_898090292_2083536984_2083538165 198186436_2083536984_2083536970_2083536984 198186436_2083536984_2083536970_2083536972 198186436_2083536984_2083536970_2083536990 198186636_2083536970_2083539073_2083536970 198186636_2083536970_2083539073_2083539077 198186636_2083536970_2083539073_3165888306 198186636_2083536970_2083539073_2083539071 198186636_2083536970_2083539073_2083539079 198186755_2083539073_2083539752_2083539073 198186755_2083539752_2083539746_2083539752 198186755_2083539752_2083539746_2083539740 198186755_2083539752_2083539746_2083539732 198186755_2083539752_2083539746_2083539742 198186755_2083539752_2083539746_2083539728 198186755_2083539752_2083539746_2083539725 198186755_2083539752_2083539746_2083539748 198186755_2083539752_2083539746_2083539744 198186755_2083539746_2083539752_2083539746 198186755_2083539746_2083539752_2083539744 198186755_2083539746_2083539752_2083539748 198186755_2083539746_2083539752_2083539725 198186755_2083539746_2083539752_2083539728 198186755_2083539746_2083539752_2083539742 198186755_2083539746_2083539752_2083539732" />