<edges>
	<edge id="383711744_2053059896_2053059864_2053059896" from="2053059896" to="2053059872" numLanes="2" speed="8.33" />
	<edge id="383711744_2053059896_2053059864_2053059872" from="2053059872" to="2053059883" numLanes="2" speed="8.33" />
	<edge id="383711744_2053059896_2053059864_2053059883" from="2053059883" to="2053059864" numLanes="2" speed="8.33" />
	<edge id="210712569_2083539063_2083536988_2083539063" from="2083539063" to="2083536988" numLanes="2" speed="11.11" />
	<edge id="249309716_2083539073_2083539063_2083539073" from="2083539073" to="3165888305" numLanes="2" speed="11.11" />
	<edge id="249309716_2083539073_2083539063_3165888305" from="3165888305" to="2083539083" numLanes="2" speed="11.11" />
	<edge id="249309716_2083539073_2083539063_2083539083" from="2083539083" to="2083539069" numLanes="2" speed="11.11" />
	<edge id="249309716_2083539073_2083539063_2083539069" from="2083539069" to="2083539081" numLanes="2" speed="11.11" />
	<edge id="249309716_2083539073_2083539063_2083539081" from="2083539081" to="2083539063" numLanes="2" speed="11.11" />
	<edge id="194798357_2053059886_2053059891_2053059886" from="2053059886" to="2053059899" numLanes="1" speed="8.33" />
	<edge id="194798357_2053059886_2053059891_2053059899" from="2053059899" to="2053059888" numLanes="1" speed="8.33" />
	<edge id="194798357_2053059886_2053059891_2053059888" from="2053059888" to="2053059880" numLanes="1" speed="8.33" />
	<edge id="194798357_2053059886_2053059891_2053059880" from="2053059880" to="2053059893" numLanes="1" speed="8.33" />
	<edge id="194798357_2053059886_2053059891_2053059893" from="2053059893" to="2053059867" numLanes="1" speed="8.33" />
	<edge id="194798357_2053059886_2053059891_2053059867" from="2053059867" to="2053059891" numLanes="1" speed="8.33" />
	<edge id="194333742_2048531811_2048539568_2048531811" from="2048531811" to="2048539570" numLanes="2" speed="13.89" />
	<edge id="194333742_2048531811_2048539568_2048539570" from="2048539570" to="2048539542" numLanes="2" speed="13.89" />
	<edge id="194333742_2048531811_2048539568_2048539542" from="2048539542" to="2048539568" numLanes="2" speed="13.89" />
	<edge id="210712572_2053070911_2053070930_2053070911" from="2053070911" to="2053070922" numLanes="2" speed="8.33" />
	<edge id="210712572_2053070911_2053070930_2053070922" from="2053070922" to="2053070920" numLanes="2" speed="8.33" />
	<edge id="210712572_2053070911_2053070930_2053070920" from="2053070920" to="2053070930" numLanes="2" speed="8.33" />
	<edge id="249309718_898090880_2053070913_898090880" from="898090880" to="898090399" numLanes="1" speed="18.06" />
	<edge id="249309718_898090880_2053070913_898090399" from="898090399" to="898091141" numLanes="1" speed="18.06" />
	<edge id="249309718_898090880_2053070913_898091141" from="898091141" to="898090693" numLanes="1" speed="18.06" />
	<edge id="249309718_898090880_2053070913_898090693" from="898090693" to="2053070913" numLanes="1" speed="18.06" />
	<edge id="210712571_2053062089_2053084422_2053062089" from="2053062089" to="2053084422" numLanes="2" speed="8.33" />
	<edge id="646011712_2053039133_6071022859_2053039133" from="2053039133" to="6071022864" numLanes="1" speed="8.33" />
	<edge id="646011712_2053039133_6071022859_6071022864" from="6071022864" to="6071022863" numLanes="1" speed="8.33" />
	<edge id="646011712_2053039133_6071022859_6071022863" from="6071022863" to="6071022862" numLanes="1" speed="8.33" />
	<edge id="646011712_2053039133_6071022859_6071022862" from="6071022862" to="6071022861" numLanes="1" speed="8.33" />
	<edge id="646011712_2053039133_6071022859_6071022861" from="6071022861" to="6071022860" numLanes="1" speed="8.33" />
	<edge id="646011712_2053039133_6071022859_6071022860" from="6071022860" to="6071022859" numLanes="1" speed="8.33" />
	<edge id="194799228_2083536966_898090292_2083536966" from="2083536966" to="2207832557" numLanes="1" speed="18.06" />
	<edge id="194799228_2083536966_898090292_2207832557" from="2207832557" to="898090292" numLanes="1" speed="18.06" />
	<edge id="194334755_2048544085_2048544602_2048544085" from="2048544085" to="2048544602" numLanes="1" speed="13.89" />
	<edge id="249309718_2207832566_2207832565_2207832566" from="2207832566" to="2207832565" numLanes="1" speed="18.06" />
	<edge id="194799233_2053064608_2053064597_2053064608" from="2053064608" to="2053064597" numLanes="1" speed="8.33" />
	<edge id="194332380_2048531811_911175125_2048531811" from="2048531811" to="2048531848" numLanes="2" speed="18.06" />
	<edge id="194332380_2048531811_911175125_2048531848" from="2048531848" to="2048531841" numLanes="2" speed="18.06" />
	<edge id="194332380_2048531811_911175125_2048531841" from="2048531841" to="2048531808" numLanes="2" speed="18.06" />
	<edge id="194332380_2048531811_911175125_2048531808" from="2048531808" to="911175125" numLanes="2" speed="18.06" />
	<edge id="194799230_2053070905_2053070899_2053070905" from="2053070905" to="2053070918" numLanes="2" speed="8.33" />
	<edge id="194799230_2053070905_2053070899_2053070918" from="2053070918" to="2053070899" numLanes="2" speed="8.33" />
	<edge id="249309718_2053070913_898090880_2053070913" from="2053070913" to="898090693" numLanes="1" speed="18.06" />
	<edge id="249309718_2053070913_898090880_898090693" from="898090693" to="898091141" numLanes="1" speed="18.06" />
	<edge id="249309718_2053070913_898090880_898091141" from="898091141" to="898090399" numLanes="1" speed="18.06" />
	<edge id="249309718_2053070913_898090880_898090399" from="898090399" to="898090880" numLanes="1" speed="18.06" />
	<edge id="194334475_2048539552_2048544598_2048539552" from="2048539552" to="2048544598" numLanes="1" speed="13.89" />
	<edge id="194799469_2053059886_2053074770_2053059886" from="2053059886" to="2053074770" numLanes="1" speed="8.33" />
	<edge id="311050747_2048524766_2048531852_2048524766" from="2048524766" to="2048528959" numLanes="2" speed="13.89" />
	<edge id="311050747_2048524766_2048531852_2048528959" from="2048528959" to="2048528962" numLanes="2" speed="13.89" />
	<edge id="311050747_2048524766_2048531852_2048528962" from="2048528962" to="2048531852" numLanes="2" speed="13.89" />
	<edge id="194799496_2053074768_2053075892_2053074768" from="2053074768" to="2053075888" numLanes="1" speed="8.33" />
	<edge id="194799496_2053074768_2053075892_2053075888" from="2053075888" to="2053075892" numLanes="1" speed="8.33" />
	<edge id="194799470_2053064607_2053074768_2053064607" from="2053064607" to="2053074766" numLanes="1" speed="8.33" />
	<edge id="194799470_2053064607_2053074768_2053074766" from="2053074766" to="2053074768" numLanes="1" speed="8.33" />
	<edge id="198186436_2083536978_2083536976_2083536978" from="2083536978" to="3165887927" numLanes="2" speed="16.67" />
	<edge id="198186436_2083536978_2083536976_3165887927" from="3165887927" to="2083536976" numLanes="2" speed="16.67" />
	<edge id="194799233_2053084424_2053083124_2053084424" from="2053084424" to="2053083124" numLanes="1" speed="8.33" />
	<edge id="194797893_2053036530_2053036527_2053036530" from="2053036530" to="2053036538" numLanes="1" speed="8.33" />
	<edge id="194797893_2053036530_2053036527_2053036538" from="2053036538" to="2053036540" numLanes="1" speed="8.33" />
	<edge id="194797893_2053036530_2053036527_2053036540" from="2053036540" to="2053036529" numLanes="1" speed="8.33" />
	<edge id="194797893_2053036530_2053036527_2053036529" from="2053036529" to="2053036536" numLanes="1" speed="8.33" />
	<edge id="194797893_2053036530_2053036527_2053036536" from="2053036536" to="2053036527" numLanes="1" speed="8.33" />
	<edge id="194797991_2048547109_2053039133_2048547109" from="2048547109" to="2053039144" numLanes="1" speed="8.33" />
	<edge id="194797991_2048547109_2053039133_2053039144" from="2053039144" to="2053039132" numLanes="1" speed="8.33" />
	<edge id="194797991_2048547109_2053039133_2053039132" from="2053039132" to="2053039163" numLanes="1" speed="8.33" />
	<edge id="194797991_2048547109_2053039133_2053039163" from="2053039163" to="2053039128" numLanes="1" speed="8.33" />
	<edge id="194797991_2048547109_2053039133_2053039128" from="2053039128" to="2053039142" numLanes="1" speed="8.33" />
	<edge id="194797991_2048547109_2053039133_2053039142" from="2053039142" to="2053039138" numLanes="1" speed="8.33" />
	<edge id="194797991_2048547109_2053039133_2053039138" from="2053039138" to="2053039130" numLanes="1" speed="8.33" />
	<edge id="194797991_2048547109_2053039133_2053039130" from="2053039130" to="2053039135" numLanes="1" speed="8.33" />
	<edge id="194797991_2048547109_2053039133_2053039135" from="2053039135" to="2053039133" numLanes="1" speed="8.33" />
	<edge id="194332380_2048531791_2048531832_2048531791" from="2048531791" to="2048531787" numLanes="2" speed="18.06" />
	<edge id="194332380_2048531791_2048531832_2048531787" from="2048531787" to="2048531832" numLanes="2" speed="18.06" />
	<edge id="194333743_2048539564_2048544091_2048539564" from="2048539564" to="2048539562" numLanes="1" speed="13.89" />
	<edge id="194333743_2048539564_2048544091_2048539562" from="2048539562" to="2048539576" numLanes="1" speed="13.89" />
	<edge id="194333743_2048539564_2048544091_2048539576" from="2048539576" to="2048544091" numLanes="1" speed="13.89" />
	<edge id="194799233_2053083124_2053084424_2053083124" from="2053083124" to="2053084424" numLanes="1" speed="8.33" />
	<edge id="198186545_898090292_2083536984_898090292" from="898090292" to="2083538157" numLanes="2" speed="18.06" />
	<edge id="198186545_898090292_2083536984_2083538157" from="2083538157" to="2083538165" numLanes="2" speed="18.06" />
	<edge id="198186545_898090292_2083536984_2083538165" from="2083538165" to="2083536984" numLanes="2" speed="18.06" />
	<edge id="194333743_2048539564_2048539552_2048539564" from="2048539564" to="2048539552" numLanes="1" speed="13.89" />
	<edge id="194333743_2048539568_2053059896_2048539568" from="2048539568" to="2053059896" numLanes="1" speed="13.89" />
	<edge id="194799233_2053064607_2053064600_2053064607" from="2053064607" to="2053064574" numLanes="1" speed="8.33" />
	<edge id="194799233_2053064607_2053064600_2053064574" from="2053064574" to="2053064587" numLanes="1" speed="8.33" />
	<edge id="194799233_2053064607_2053064600_2053064587" from="2053064587" to="2053064584" numLanes="1" speed="8.33" />
	<edge id="194799233_2053064607_2053064600_2053064584" from="2053064584" to="2053064600" numLanes="1" speed="8.33" />
	<edge id="194798757_2053062089_2053059891_2053062089" from="2053062089" to="2053062084" numLanes="1" speed="8.33" />
	<edge id="194798757_2053062089_2053059891_2053062084" from="2053062084" to="2053062081" numLanes="1" speed="8.33" />
	<edge id="194798757_2053062089_2053059891_2053062081" from="2053062081" to="2053062092" numLanes="1" speed="8.33" />
	<edge id="194798757_2053062089_2053059891_2053062092" from="2053062092" to="2053062061" numLanes="1" speed="8.33" />
	<edge id="194798757_2053062089_2053059891_2053062061" from="2053062061" to="2053062078" numLanes="1" speed="8.33" />
	<edge id="194798757_2053062089_2053059891_2053062078" from="2053062078" to="2053062094" numLanes="1" speed="8.33" />
	<edge id="194798757_2053062089_2053059891_2053062094" from="2053062094" to="2053062072" numLanes="1" speed="8.33" />
	<edge id="194798757_2053062089_2053059891_2053062072" from="2053062072" to="2053062076" numLanes="1" speed="8.33" />
	<edge id="194798757_2053062089_2053059891_2053062076" from="2053062076" to="2053062058" numLanes="1" speed="8.33" />
	<edge id="194798757_2053062089_2053059891_2053062058" from="2053062058" to="2053059891" numLanes="1" speed="8.33" />
	<edge id="210712574_2048531832_2048524766_2048531832" from="2048531832" to="2048528961" numLanes="2" speed="13.89" />
	<edge id="210712574_2048531832_2048524766_2048528961" from="2048528961" to="2048524766" numLanes="2" speed="13.89" />
	<edge id="194332381_898091751_1270711691_898091751" from="898091751" to="898090515" numLanes="1" speed="18.06" />
	<edge id="194332381_898091751_1270711691_898090515" from="898090515" to="898090942" numLanes="1" speed="18.06" />
	<edge id="194332381_898091751_1270711691_898090942" from="898090942" to="2048539544" numLanes="1" speed="18.06" />
	<edge id="194332381_898091751_1270711691_2048539544" from="2048539544" to="898092007" numLanes="1" speed="18.06" />
	<edge id="194332381_898091751_1270711691_898092007" from="898092007" to="2048522073" numLanes="1" speed="18.06" />
	<edge id="194332381_898091751_1270711691_2048522073" from="2048522073" to="2048539588" numLanes="1" speed="18.06" />
	<edge id="194332381_898091751_1270711691_2048539588" from="2048539588" to="2048522071" numLanes="1" speed="18.06" />
	<edge id="194332381_898091751_1270711691_2048522071" from="2048522071" to="898090195" numLanes="1" speed="18.06" />
	<edge id="194332381_898091751_1270711691_898090195" from="898090195" to="898091177" numLanes="1" speed="18.06" />
	<edge id="194332381_898091751_1270711691_898091177" from="898091177" to="2048541439" numLanes="1" speed="18.06" />
	<edge id="194332381_898091751_1270711691_2048541439" from="2048541439" to="2048541447" numLanes="1" speed="18.06" />
	<edge id="194332381_898091751_1270711691_2048541447" from="2048541447" to="2501528188" numLanes="1" speed="18.06" />
	<edge id="194332381_898091751_1270711691_2501528188" from="2501528188" to="1358328962" numLanes="1" speed="18.06" />
	<edge id="194332381_898091751_1270711691_1358328962" from="1358328962" to="2501518991" numLanes="1" speed="18.06" />
	<edge id="194332381_898091751_1270711691_2501518991" from="2501518991" to="2048513204" numLanes="1" speed="18.06" />
	<edge id="194332381_898091751_1270711691_2048513204" from="2048513204" to="898091948" numLanes="1" speed="18.06" />
	<edge id="194332381_898091751_1270711691_898091948" from="898091948" to="2052984272" numLanes="1" speed="18.06" />
	<edge id="194332381_898091751_1270711691_2052984272" from="2052984272" to="2052999571" numLanes="1" speed="18.06" />
	<edge id="194332381_898091751_1270711691_2052999571" from="2052999571" to="2052981811" numLanes="1" speed="18.06" />
	<edge id="194332381_898091751_1270711691_2052981811" from="2052981811" to="2053012776" numLanes="1" speed="18.06" />
	<edge id="194332381_898091751_1270711691_2053012776" from="2053012776" to="1270711714" numLanes="1" speed="18.06" />
	<edge id="194332381_898091751_1270711691_1270711714" from="1270711714" to="1270711720" numLanes="1" speed="18.06" />
	<edge id="194332381_898091751_1270711691_1270711720" from="1270711720" to="1270711628" numLanes="1" speed="18.06" />
	<edge id="194332381_898091751_1270711691_1270711628" from="1270711628" to="1270711640" numLanes="1" speed="18.06" />
	<edge id="194332381_898091751_1270711691_1270711640" from="1270711640" to="1270711685" numLanes="1" speed="18.06" />
	<edge id="194332381_898091751_1270711691_1270711685" from="1270711685" to="1270711711" numLanes="1" speed="18.06" />
	<edge id="194332381_898091751_1270711691_1270711711" from="1270711711" to="1270711619" numLanes="1" speed="18.06" />
	<edge id="194332381_898091751_1270711691_1270711619" from="1270711619" to="1270711624" numLanes="1" speed="18.06" />
	<edge id="194332381_898091751_1270711691_1270711624" from="1270711624" to="1270711665" numLanes="1" speed="18.06" />
	<edge id="194332381_898091751_1270711691_1270711665" from="1270711665" to="1270711677" numLanes="1" speed="18.06" />
	<edge id="194332381_898091751_1270711691_1270711677" from="1270711677" to="1270711717" numLanes="1" speed="18.06" />
	<edge id="194332381_898091751_1270711691_1270711717" from="1270711717" to="1270711724" numLanes="1" speed="18.06" />
	<edge id="194332381_898091751_1270711691_1270711724" from="1270711724" to="1270711632" numLanes="1" speed="18.06" />
	<edge id="194332381_898091751_1270711691_1270711632" from="1270711632" to="2063481015" numLanes="1" speed="18.06" />
	<edge id="194332381_898091751_1270711691_2063481015" from="2063481015" to="1270711675" numLanes="1" speed="18.06" />
	<edge id="194332381_898091751_1270711691_1270711675" from="1270711675" to="1270711691" numLanes="1" speed="18.06" />
	<edge id="249309718_2207832566_2053070913_2207832566" from="2207832566" to="2053070913" numLanes="1" speed="18.06" />
	<edge id="194798357_2053059891_2053059864_2053059891" from="2053059891" to="2053059862" numLanes="1" speed="8.33" />
	<edge id="194798357_2053059891_2053059864_2053059862" from="2053059862" to="2053059864" numLanes="1" speed="8.33" />
	<edge id="194797991_2053036527_2053039156_2053036527" from="2053036527" to="2053039140" numLanes="1" speed="8.33" />
	<edge id="194797991_2053036527_2053039156_2053039140" from="2053039140" to="2053039145" numLanes="1" speed="8.33" />
	<edge id="194797991_2053036527_2053039156_2053039145" from="2053039145" to="2053039157" numLanes="1" speed="8.33" />
	<edge id="194797991_2053036527_2053039156_2053039157" from="2053039157" to="2053039149" numLanes="1" speed="8.33" />
	<edge id="194797991_2053036527_2053039156_2053039149" from="2053039149" to="2053039159" numLanes="1" speed="8.33" />
	<edge id="194797991_2053036527_2053039156_2053039159" from="2053039159" to="2053039152" numLanes="1" speed="8.33" />
	<edge id="194797991_2053036527_2053039156_2053039152" from="2053039152" to="2053039156" numLanes="1" speed="8.33" />
	<edge id="198186546_2207832561_898090906_2207832561" from="2207832561" to="2207832564" numLanes="2" speed="16.67" />
	<edge id="198186546_2207832561_898090906_2207832564" from="2207832564" to="898090906" numLanes="2" speed="16.67" />
	<edge id="194797991_2053039156_2053036527_2053039156" from="2053039156" to="2053039152" numLanes="1" speed="8.33" />
	<edge id="194797991_2053039156_2053036527_2053039152" from="2053039152" to="2053039159" numLanes="1" speed="8.33" />
	<edge id="194797991_2053039156_2053036527_2053039159" from="2053039159" to="2053039149" numLanes="1" speed="8.33" />
	<edge id="194797991_2053039156_2053036527_2053039149" from="2053039149" to="2053039157" numLanes="1" speed="8.33" />
	<edge id="194797991_2053039156_2053036527_2053039157" from="2053039157" to="2053039145" numLanes="1" speed="8.33" />
	<edge id="194797991_2053039156_2053036527_2053039145" from="2053039145" to="2053039140" numLanes="1" speed="8.33" />
	<edge id="194797991_2053039156_2053036527_2053039140" from="2053039140" to="2053036527" numLanes="1" speed="8.33" />
	<edge id="210712566_2053070930_2207832566_2053070930" from="2053070930" to="2207832566" numLanes="2" speed="8.33" />
	<edge id="194799911_2053084422_2053084424_2053084422" from="2053084422" to="2053084424" numLanes="2" speed="8.33" />
	<edge id="194799233_2053077720_2053064582_2053077720" from="2053077720" to="2053064582" numLanes="1" speed="8.33" />
	<edge id="194799230_2053070899_2053070911_2053070899" from="2053070899" to="2053070908" numLanes="2" speed="8.33" />
	<edge id="194799230_2053070899_2053070911_2053070908" from="2053070908" to="2053070911" numLanes="2" speed="8.33" />
	<edge id="249309718_2053070905_898090292_2053070905" from="2053070905" to="898091972" numLanes="1" speed="18.06" />
	<edge id="249309718_2053070905_898090292_898091972" from="898091972" to="898090924" numLanes="1" speed="18.06" />
	<edge id="249309718_2053070905_898090292_898090924" from="898090924" to="898090483" numLanes="1" speed="18.06" />
	<edge id="249309718_2053070905_898090292_898090483" from="898090483" to="898089853" numLanes="1" speed="18.06" />
	<edge id="249309718_2053070905_898090292_898089853" from="898089853" to="898091706" numLanes="1" speed="18.06" />
	<edge id="249309718_2053070905_898090292_898091706" from="898091706" to="898090750" numLanes="1" speed="18.06" />
	<edge id="249309718_2053070905_898090292_898090750" from="898090750" to="898090233" numLanes="1" speed="18.06" />
	<edge id="249309718_2053070905_898090292_898090233" from="898090233" to="898092038" numLanes="1" speed="18.06" />
	<edge id="249309718_2053070905_898090292_898092038" from="898092038" to="898091442" numLanes="1" speed="18.06" />
	<edge id="249309718_2053070905_898090292_898091442" from="898091442" to="898090549" numLanes="1" speed="18.06" />
	<edge id="249309718_2053070905_898090292_898090549" from="898090549" to="898089943" numLanes="1" speed="18.06" />
	<edge id="249309718_2053070905_898090292_898089943" from="898089943" to="898091793" numLanes="1" speed="18.06" />
	<edge id="249309718_2053070905_898090292_898091793" from="898091793" to="898091203" numLanes="1" speed="18.06" />
	<edge id="249309718_2053070905_898090292_898091203" from="898091203" to="898090292" numLanes="1" speed="18.06" />
	<edge id="194334475_2048544598_2048544098_2048544598" from="2048544598" to="2258008395" numLanes="1" speed="13.89" />
	<edge id="194334475_2048544598_2048544098_2258008395" from="2258008395" to="2048544605" numLanes="1" speed="13.89" />
	<edge id="194334475_2048544598_2048544098_2048544605" from="2048544605" to="2048544599" numLanes="1" speed="13.89" />
	<edge id="194334475_2048544598_2048544098_2048544599" from="2048544599" to="2048544098" numLanes="1" speed="13.89" />
	<edge id="198187092_2083542691_2083542518_2083542691" from="2083542691" to="2083542688" numLanes="1" speed="8.33" />
	<edge id="198187092_2083542691_2083542518_2083542688" from="2083542688" to="2083542518" numLanes="1" speed="8.33" />
	<edge id="194799469_2053074770_2053059886_2053074770" from="2053074770" to="2053059886" numLanes="1" speed="8.33" />
	<edge id="198186755_2083539752_2083539746_2083539752" from="2083539752" to="2083539740" numLanes="1" speed="13.89" />
	<edge id="198186755_2083539752_2083539746_2083539740" from="2083539740" to="2083539732" numLanes="1" speed="13.89" />
	<edge id="198186755_2083539752_2083539746_2083539732" from="2083539732" to="2083539742" numLanes="1" speed="13.89" />
	<edge id="198186755_2083539752_2083539746_2083539742" from="2083539742" to="2083539728" numLanes="1" speed="13.89" />
	<edge id="198186755_2083539752_2083539746_2083539728" from="2083539728" to="2083539725" numLanes="1" speed="13.89" />
	<edge id="198186755_2083539752_2083539746_2083539725" from="2083539725" to="2083539748" numLanes="1" speed="13.89" />
	<edge id="198186755_2083539752_2083539746_2083539748" from="2083539748" to="2083539744" numLanes="1" speed="13.89" />
	<edge id="198186755_2083539752_2083539746_2083539744" from="2083539744" to="2083539746" numLanes="1" speed="13.89" />
	<edge id="194334475_2048544098_2048544598_2048544098" from="2048544098" to="2048544599" numLanes="1" speed="13.89" />
	<edge id="194334475_2048544098_2048544598_2048544599" from="2048544599" to="2048544605" numLanes="1" speed="13.89" />
	<edge id="194334475_2048544098_2048544598_2048544605" from="2048544605" to="2258008395" numLanes="1" speed="13.89" />
	<edge id="194334475_2048544098_2048544598_2258008395" from="2258008395" to="2048544598" numLanes="1" speed="13.89" />
	<edge id="194331215_2048524759_2048524766_2048524759" from="2048524759" to="2048524764" numLanes="1" speed="13.89" />
	<edge id="194331215_2048524759_2048524766_2048524764" from="2048524764" to="2048524760" numLanes="1" speed="13.89" />
	<edge id="194331215_2048524759_2048524766_2048524760" from="2048524760" to="2048524763" numLanes="1" speed="13.89" />
	<edge id="194331215_2048524759_2048524766_2048524763" from="2048524763" to="2048524762" numLanes="1" speed="13.89" />
	<edge id="194331215_2048524759_2048524766_2048524762" from="2048524762" to="2048524752" numLanes="1" speed="13.89" />
	<edge id="194331215_2048524759_2048524766_2048524752" from="2048524752" to="2048524758" numLanes="1" speed="13.89" />
	<edge id="194331215_2048524759_2048524766_2048524758" from="2048524758" to="2048524757" numLanes="1" speed="13.89" />
	<edge id="194331215_2048524759_2048524766_2048524757" from="2048524757" to="2048524769" numLanes="1" speed="13.89" />
	<edge id="194331215_2048524759_2048524766_2048524769" from="2048524769" to="2048524766" numLanes="1" speed="13.89" />
	<edge id="194799233_2053070911_2053064594_2053070911" from="2053070911" to="2053064572" numLanes="1" speed="8.33" />
	<edge id="194799233_2053070911_2053064594_2053064572" from="2053064572" to="2053064579" numLanes="1" speed="8.33" />
	<edge id="194799233_2053070911_2053064594_2053064579" from="2053064579" to="2053064595" numLanes="1" speed="8.33" />
	<edge id="194799233_2053070911_2053064594_2053064595" from="2053064595" to="2053064594" numLanes="1" speed="8.33" />
	<edge id="194799233_2053075892_2053064607_2053075892" from="2053075892" to="2053064607" numLanes="1" speed="8.33" />
	<edge id="194799512_2053077718_2053077720_2053077718" from="2053077718" to="2053077720" numLanes="1" speed="8.33" />
	<edge id="198186436_2083536988_2083536978_2083536988" from="2083536988" to="2083536980" numLanes="2" speed="16.67" />
	<edge id="198186436_2083536988_2083536978_2083536980" from="2083536980" to="2083536992" numLanes="2" speed="16.67" />
	<edge id="198186436_2083536988_2083536978_2083536992" from="2083536992" to="2083536978" numLanes="2" speed="16.67" />
	<edge id="194334755_2048544090_2048544602_2048544090" from="2048544090" to="2048544602" numLanes="1" speed="13.89" />
	<edge id="198186436_2083536987_2083536984_2083536987" from="2083536987" to="2083536974" numLanes="2" speed="16.67" />
	<edge id="198186436_2083536987_2083536984_2083536974" from="2083536974" to="2083536984" numLanes="2" speed="16.67" />
	<edge id="194799496_2053075892_2053074768_2053075892" from="2053075892" to="2053075888" numLanes="1" speed="8.33" />
	<edge id="194799496_2053075892_2053074768_2053075888" from="2053075888" to="2053074768" numLanes="1" speed="8.33" />
	<edge id="194799233_2053064597_2053075892_2053064597" from="2053064597" to="2053075892" numLanes="1" speed="8.33" />
	<edge id="198186636_2083536970_2083539073_2083536970" from="2083536970" to="2083539077" numLanes="2" speed="11.11" />
	<edge id="198186636_2083536970_2083539073_2083539077" from="2083539077" to="3165888306" numLanes="2" speed="11.11" />
	<edge id="198186636_2083536970_2083539073_3165888306" from="3165888306" to="2083539071" numLanes="2" speed="11.11" />
	<edge id="198186636_2083536970_2083539073_2083539071" from="2083539071" to="2083539079" numLanes="2" speed="11.11" />
	<edge id="198186636_2083536970_2083539073_2083539079" from="2083539079" to="2083539073" numLanes="2" speed="11.11" />
	<edge id="194334756_2048544091_2048544089_2048544091" from="2048544091" to="2048544089" numLanes="1" speed="8.33" />
	<edge id="249309718_2207832565_2207832566_2207832565" from="2207832565" to="2207832566" numLanes="1" speed="18.06" />
	<edge id="249309718_898090292_2053070905_898090292" from="898090292" to="898091203" numLanes="1" speed="18.06" />
	<edge id="249309718_898090292_2053070905_898091203" from="898091203" to="898091793" numLanes="1" speed="18.06" />
	<edge id="249309718_898090292_2053070905_898091793" from="898091793" to="898089943" numLanes="1" speed="18.06" />
	<edge id="249309718_898090292_2053070905_898089943" from="898089943" to="898090549" numLanes="1" speed="18.06" />
	<edge id="249309718_898090292_2053070905_898090549" from="898090549" to="898091442" numLanes="1" speed="18.06" />
	<edge id="249309718_898090292_2053070905_898091442" from="898091442" to="898092038" numLanes="1" speed="18.06" />
	<edge id="249309718_898090292_2053070905_898092038" from="898092038" to="898090233" numLanes="1" speed="18.06" />
	<edge id="249309718_898090292_2053070905_898090233" from="898090233" to="898090750" numLanes="1" speed="18.06" />
	<edge id="249309718_898090292_2053070905_898090750" from="898090750" to="898091706" numLanes="1" speed="18.06" />
	<edge id="249309718_898090292_2053070905_898091706" from="898091706" to="898089853" numLanes="1" speed="18.06" />
	<edge id="249309718_898090292_2053070905_898089853" from="898089853" to="898090483" numLanes="1" speed="18.06" />
	<edge id="249309718_898090292_2053070905_898090483" from="898090483" to="898090924" numLanes="1" speed="18.06" />
	<edge id="249309718_898090292_2053070905_898090924" from="898090924" to="898091972" numLanes="1" speed="18.06" />
	<edge id="249309718_898090292_2053070905_898091972" from="898091972" to="2053070905" numLanes="1" speed="18.06" />
	<edge id="194799469_2053074770_2053064608_2053074770" from="2053074770" to="2053074764" numLanes="1" speed="8.33" />
	<edge id="194799469_2053074770_2053064608_2053074764" from="2053074764" to="2053064608" numLanes="1" speed="8.33" />
	<edge id="194332380_911175125_2048531791_911175125" from="911175125" to="2048531796" numLanes="2" speed="18.06" />
	<edge id="194332380_911175125_2048531791_2048531796" from="2048531796" to="2048531770" numLanes="2" speed="18.06" />
	<edge id="194332380_911175125_2048531791_2048531770" from="2048531770" to="2048531782" numLanes="2" speed="18.06" />
	<edge id="194332380_911175125_2048531791_2048531782" from="2048531782" to="2048531778" numLanes="2" speed="18.06" />
	<edge id="194332380_911175125_2048531791_2048531778" from="2048531778" to="2048531791" numLanes="2" speed="18.06" />
	<edge id="210712570_2053064582_2083536968_2053064582" from="2053064582" to="2083532941" numLanes="2" speed="8.33" />
	<edge id="210712570_2053064582_2083536968_2083532941" from="2083532941" to="2083532942" numLanes="2" speed="8.33" />
	<edge id="210712570_2053064582_2083536968_2083532942" from="2083532942" to="2083536968" numLanes="2" speed="8.33" />
	<edge id="194798908_2053064577_2053062089_2053064577" from="2053064577" to="2053062089" numLanes="2" speed="8.33" />
	<edge id="194334476_2048544598_2048539564_2048544598" from="2048544598" to="2048539564" numLanes="1" speed="11.11" />
	<edge id="210712572_2053070930_2053070913_2053070930" from="2053070930" to="2053070913" numLanes="2" speed="8.33" />
	<edge id="194333743_2048539552_2083542526_2048539552" from="2048539552" to="2048539560" numLanes="1" speed="13.89" />
	<edge id="194333743_2048539552_2083542526_2048539560" from="2048539560" to="2048539550" numLanes="1" speed="13.89" />
	<edge id="194333743_2048539552_2083542526_2048539550" from="2048539550" to="2048539561" numLanes="1" speed="13.89" />