<connections>
	<connection from="383711744_2053059896_2053059864_2053059896" to="383711744_2053059896_2053059864_2053059872" />
	<connection from="383711744_2053059896_2053059864_2053059872" to="383711744_2053059896_2053059864_2053059883" />
	<connection from="383711744_2053059896_2053059864_2053059883" to="194798356_2053059864_2053059875_2053059864" />
	<connection from="383711744_2053059896_2053059864_2053059883" to="194798357_2053059864_2053059891_2053059864" />
	<connection from="210712569_2083539063_2083536988_2083539063" to="198186546_2083536988_2207832561_2083536988" />
	<connection from="210712569_2083539063_2083536988_2083539063" to="198186436_2083536988_2083536978_2083536988" />
	<connection from="249309716_2083539073_2083539063_2083539073" to="249309716_2083539073_2083539063_3165888305" />
	<connection from="249309716_2083539073_2083539063_3165888305" to="249309716_2083539073_2083539063_2083539083" />
	<connection from="249309716_2083539073_2083539063_2083539083" to="249309716_2083539073_2083539063_2083539069" />
	<connection from="249309716_2083539073_2083539063_2083539069" to="249309716_2083539073_2083539063_2083539081" />
	<connection from="249309716_2083539073_2083539063_2083539081" to="210712569_2083539063_2083536988_2083539063" />
	<connection from="249309716_2083539073_2083539063_2083539081" to="311050594_2083539063_2207832561_2083539063" />
	<connection from="194798357_2053059886_2053059891_2053059886" to="194798357_2053059886_2053059891_2053059899" />
	<connection from="194798357_2053059886_2053059891_2053059899" to="194798357_2053059886_2053059891_2053059888" />
	<connection from="194798357_2053059886_2053059891_2053059888" to="194798357_2053059886_2053059891_2053059880" />
	<connection from="194798357_2053059886_2053059891_2053059880" to="194798357_2053059886_2053059891_2053059893" />
	<connection from="194798357_2053059886_2053059891_2053059893" to="194798357_2053059886_2053059891_2053059867" />
	<connection from="194798357_2053059886_2053059891_2053059867" to="194798357_2053059891_2053059864_2053059891" />
	<connection from="194798357_2053059886_2053059891_2053059867" to="194798357_2053059891_2053059886_2053059891" />
	<connection from="194798357_2053059886_2053059891_2053059867" to="194798757_2053059891_2053062089_2053059891" />
	<connection from="194333742_2048531811_2048539568_2048531811" to="194333742_2048531811_2048539568_2048539570" />
	<connection from="194333742_2048531811_2048539568_2048539570" to="194333742_2048531811_2048539568_2048539542" />
	<connection from="194333742_2048531811_2048539568_2048539542" to="311050748_2048539568_911175125_2048539568" />
	<connection from="194333742_2048531811_2048539568_2048539542" to="194333743_2048539568_2053059896_2048539568" />
	<connection from="210712572_2053070911_2053070930_2053070911" to="210712572_2053070911_2053070930_2053070922" />
	<connection from="210712572_2053070911_2053070930_2053070922" to="210712572_2053070911_2053070930_2053070920" />
	<connection from="210712572_2053070911_2053070930_2053070920" to="210712572_2053070930_2053070913_2053070930" />
	<connection from="210712572_2053070911_2053070930_2053070920" to="210712566_2053070930_2207832566_2053070930" />
	<connection from="249309718_898090880_2053070913_898090880" to="249309718_898090880_2053070913_898090399" />
	<connection from="249309718_898090880_2053070913_898090399" to="249309718_898090880_2053070913_898091141" />
	<connection from="249309718_898090880_2053070913_898091141" to="249309718_898090880_2053070913_898090693" />
	<connection from="249309718_898090880_2053070913_898090693" to="249309718_2053070913_898090880_2053070913" />
	<connection from="249309718_898090880_2053070913_898090693" to="249309718_2053070913_2207832566_2053070913" />
	<connection from="210712571_2053062089_2053084422_2053062089" to="194799911_2053084422_2053084424_2053084422" />
	<connection from="210712571_2053062089_2053084422_2053062089" to="210712571_2053084422_2053064594_2053084422" />
	<connection from="646011712_2053039133_6071022859_2053039133" to="646011712_2053039133_6071022859_6071022864" />
	<connection from="646011712_2053039133_6071022859_6071022864" to="646011712_2053039133_6071022859_6071022863" />
	<connection from="646011712_2053039133_6071022859_6071022863" to="646011712_2053039133_6071022859_6071022862" />
	<connection from="646011712_2053039133_6071022859_6071022862" to="646011712_2053039133_6071022859_6071022861" />
	<connection from="646011712_2053039133_6071022859_6071022861" to="646011712_2053039133_6071022859_6071022860" />
	<connection from="646011712_2053039133_6071022859_6071022860" to="646011712_6071022859_2053039133_6071022859" />
	<connection from="194799228_2083536966_898090292_2083536966" to="194799228_2083536966_898090292_2207832557" />
	<connection from="194799228_2083536966_898090292_2207832557" to="198186545_898090292_2083536984_898090292" />
	<connection from="194799228_2083536966_898090292_2207832557" to="249309718_898090292_2053070905_898090292" />
	<connection from="194334755_2048544085_2048544602_2048544085" to="194334755_2048544602_2048544085_2048544602" />
	<connection from="194334755_2048544085_2048544602_2048544085" to="194334475_2048544602_2048544098_2048544602" />
	<connection from="194334755_2048544085_2048544602_2048544085" to="194334755_2048544602_2048544090_2048544602" />
	<connection from="249309718_2207832566_2207832565_2207832566" to="210712567_2207832565_2053070899_2207832565" />
	<connection from="249309718_2207832566_2207832565_2207832566" to="249309718_2207832565_2207832566_2207832565" />
	<connection from="249309718_2207832566_2207832565_2207832566" to="249309718_2207832565_2053070905_2207832565" />
	<connection from="194799233_2053064608_2053064597_2053064608" to="194799233_2053064597_2053075892_2053064597" />
	<connection from="194799233_2053064608_2053064597_2053064608" to="194799498_2053064597_2053074770_2053064597" />
	<connection from="194799233_2053064608_2053064597_2053064608" to="194799233_2053064597_2053064608_2053064597" />
	<connection from="194332380_2048531811_911175125_2048531811" to="194332380_2048531811_911175125_2048531848" />
	<connection from="194332380_2048531811_911175125_2048531848" to="194332380_2048531811_911175125_2048531841" />
	<connection from="194332380_2048531811_911175125_2048531841" to="194332380_2048531811_911175125_2048531808" />
	<connection from="194332380_2048531811_911175125_2048531808" to="194332379_911175125_898091751_911175125" />
	<connection from="194332380_2048531811_911175125_2048531808" to="194332380_911175125_2048531791_911175125" />
	<connection from="194799230_2053070905_2053070899_2053070905" to="194799230_2053070905_2053070899_2053070918" />
	<connection from="194799230_2053070905_2053070899_2053070918" to="194799230_2053070899_2053070911_2053070899" />
	<connection from="249309718_2053070913_898090880_2053070913" to="249309718_2053070913_898090880_898090693" />
	<connection from="249309718_2053070913_898090880_898090693" to="249309718_2053070913_898090880_898091141" />
	<connection from="249309718_2053070913_898090880_898091141" to="249309718_2053070913_898090880_898090399" />
	<connection from="249309718_2053070913_898090880_898090399" to="311050746_898090880_2048531811_898090880" />
	<connection from="249309718_2053070913_898090880_898090399" to="249309718_898090880_2053070913_898090880" />
	<connection from="194334475_2048539552_2048544598_2048539552" to="194334476_2048544598_2048539564_2048544598" />
	<connection from="194334475_2048539552_2048544598_2048539552" to="194334475_2048544598_2048539552_2048544598" />
	<connection from="194334475_2048539552_2048544598_2048539552" to="194334475_2048544598_2048544098_2048544598" />
	<connection from="194799469_2053059886_2053074770_2053059886" to="194799469_2053074770_2053064608_2053074770" />
	<connection from="194799469_2053059886_2053074770_2053059886" to="194799498_2053074770_2053064597_2053074770" />
	<connection from="194799469_2053059886_2053074770_2053059886" to="194799469_2053074770_2053059886_2053074770" />
	<connection from="311050747_2048524766_2048531852_2048524766" to="311050747_2048524766_2048531852_2048528959" />
	<connection from="311050747_2048524766_2048531852_2048528959" to="311050747_2048524766_2048531852_2048528962" />
	<connection from="311050747_2048524766_2048531852_2048528962" to="194332380_2048531852_2048531844_2048531852" />
	<connection from="194799496_2053074768_2053075892_2053074768" to="194799496_2053074768_2053075892_2053075888" />
	<connection from="194799496_2053074768_2053075892_2053075888" to="194799233_2053075892_2053064607_2053075892" />
	<connection from="194799496_2053074768_2053075892_2053075888" to="194799233_2053075892_2053064597_2053075892" />
	<connection from="194799496_2053074768_2053075892_2053075888" to="194799496_2053075892_2053074768_2053075892" />
	<connection from="194799470_2053064607_2053074768_2053064607" to="194799470_2053064607_2053074768_2053074766" />
	<connection from="194799470_2053064607_2053074768_2053074766" to="194799496_2053074768_2053075892_2053074768" />
	<connection from="194799470_2053064607_2053074768_2053074766" to="194799470_2053074768_2053064607_2053074768" />
	<connection from="194799470_2053064607_2053074768_2053074766" to="194799470_2053074768_2053059886_2053074768" />
	<connection from="198186436_2083536978_2083536976_2083536978" to="198186436_2083536978_2083536976_3165887927" />
	<connection from="198186436_2083536978_2083536976_3165887927" to="198186436_2083536976_2083536968_2083536976" />
	<connection from="198186436_2083536978_2083536976_3165887927" to="198186172_2083536976_2053064582_2083536976" />
	<connection from="194799233_2053084424_2053083124_2053084424" to="194799778_2053083124_2053064577_2053083124" />
	<connection from="194799233_2053084424_2053083124_2053084424" to="194799233_2053083124_2053084424_2053083124" />
	<connection from="194799233_2053084424_2053083124_2053084424" to="194799233_2053083124_2053064600_2053083124" />
	<connection from="194797893_2053036530_2053036527_2053036530" to="194797893_2053036530_2053036527_2053036538" />
	<connection from="194797893_2053036530_2053036527_2053036538" to="194797893_2053036530_2053036527_2053036540" />
	<connection from="194797893_2053036530_2053036527_2053036540" to="194797893_2053036530_2053036527_2053036529" />
	<connection from="194797893_2053036530_2053036527_2053036529" to="194797893_2053036530_2053036527_2053036536" />
	<connection from="194797893_2053036530_2053036527_2053036536" to="194797893_2053036527_2053036530_2053036527" />
	<connection from="194797893_2053036530_2053036527_2053036536" to="194797991_2053036527_2053039156_2053036527" />
	<connection from="194797893_2053036530_2053036527_2053036536" to="194797991_2053036527_2053039133_2053036527" />
	<connection from="194797991_2048547109_2053039133_2048547109" to="194797991_2048547109_2053039133_2053039144" />
	<connection from="194797991_2048547109_2053039133_2053039144" to="194797991_2048547109_2053039133_2053039132" />
	<connection from="194797991_2048547109_2053039133_2053039132" to="194797991_2048547109_2053039133_2053039163" />
	<connection from="194797991_2048547109_2053039133_2053039163" to="194797991_2048547109_2053039133_2053039128" />
	<connection from="194797991_2048547109_2053039133_2053039128" to="194797991_2048547109_2053039133_2053039142" />
	<connection from="194797991_2048547109_2053039133_2053039142" to="194797991_2048547109_2053039133_2053039138" />
	<connection from="194797991_2048547109_2053039133_2053039138" to="194797991_2048547109_2053039133_2053039130" />
	<connection from="194797991_2048547109_2053039133_2053039130" to="194797991_2048547109_2053039133_2053039135" />
	<connection from="194797991_2048547109_2053039133_2053039135" to="194797991_2053039133_2053036527_2053039133" />
	<connection from="194797991_2048547109_2053039133_2053039135" to="646011712_2053039133_6071022859_2053039133" />
	<connection from="194797991_2048547109_2053039133_2053039135" to="194797991_2053039133_2048547109_2053039133" />
	<connection from="194332380_2048531791_2048531832_2048531791" to="194332380_2048531791_2048531832_2048531787" />
	<connection from="194332380_2048531791_2048531832_2048531787" to="210712574_2048531832_2048524766_2048531832" />
	<connection from="194332380_2048531791_2048531832_2048531787" to="194332380_2048531832_2048531852_2048531832" />
	<connection from="194333743_2048539564_2048544091_2048539564" to="194333743_2048539564_2048544091_2048539562" />
	<connection from="194333743_2048539564_2048544091_2048539562" to="194333743_2048539564_2048544091_2048539576" />
	<connection from="194333743_2048539564_2048544091_2048539576" to="194333743_2048544091_2053059875_2048544091" />
	<connection from="194333743_2048539564_2048544091_2048539576" to="194334756_2048544091_2048544089_2048544091" />
	<connection from="194333743_2048539564_2048544091_2048539576" to="194333743_2048544091_2048539564_2048544091" />
	<connection from="194799233_2053083124_2053084424_2053083124" to="194799233_2053084424_2053083124_2053084424" />
	<connection from="194799233_2053083124_2053084424_2053083124" to="194799233_2053084424_2053064594_2053084424" />
	<connection from="198186545_898090292_2083536984_898090292" to="198186545_898090292_2083536984_2083538157" />
	<connection from="198186545_898090292_2083536984_2083538157" to="198186545_898090292_2083536984_2083538165" />
	<connection from="198186545_898090292_2083536984_2083538165" to="198186436_2083536984_2083536970_2083536984" />
	<connection from="194333743_2048539564_2048539552_2048539564" to="194333743_2048539552_2083542526_2048539552" />
	<connection from="194333743_2048539564_2048539552_2048539564" to="194334475_2048539552_2048544598_2048539552" />
	<connection from="194333743_2048539564_2048539552_2048539564" to="194333743_2048539552_2048539564_2048539552" />
	<connection from="194333743_2048539568_2053059896_2048539568" to="383711744_2053059896_2053059864_2053059896" />
	<connection from="194333743_2048539568_2053059896_2048539568" to="194333743_2053059896_2048539568_2053059896" />
	<connection from="194333743_2048539568_2053059896_2048539568" to="194333743_2053059896_2053059875_2053059896" />
	<connection from="194799233_2053064607_2053064600_2053064607" to="194799233_2053064607_2053064600_2053064574" />
	<connection from="194799233_2053064607_2053064600_2053064574" to="194799233_2053064607_2053064600_2053064587" />
	<connection from="194799233_2053064607_2053064600_2053064587" to="194799233_2053064607_2053064600_2053064584" />
	<connection from="194799233_2053064607_2053064600_2053064584" to="194799233_2053064600_2053064607_2053064600" />
	<connection from="194799233_2053064607_2053064600_2053064584" to="194798908_2053064600_2053064577_2053064600" />
	<connection from="194799233_2053064607_2053064600_2053064584" to="194799233_2053064600_2053083124_2053064600" />
	<connection from="194798757_2053062089_2053059891_2053062089" to="194798757_2053062089_2053059891_2053062084" />
	<connection from="194798757_2053062089_2053059891_2053062084" to="194798757_2053062089_2053059891_2053062081" />
	<connection from="194798757_2053062089_2053059891_2053062081" to="194798757_2053062089_2053059891_2053062092" />
	<connection from="194798757_2053062089_2053059891_2053062092" to="194798757_2053062089_2053059891_2053062061" />
	<connection from="194798757_2053062089_2053059891_2053062061" to="194798757_2053062089_2053059891_2053062078" />
	<connection from="194798757_2053062089_2053059891_2053062078" to="194798757_2053062089_2053059891_2053062094" />
	<connection from="194798757_2053062089_2053059891_2053062094" to="194798757_2053062089_2053059891_2053062072" />
	<connection from="194798757_2053062089_2053059891_2053062072" to="194798757_2053062089_2053059891_2053062076" />
	<connection from="194798757_2053062089_2053059891_2053062076" to="194798757_2053062089_2053059891_2053062058" />
	<connection from="194798757_2053062089_2053059891_2053062058" to="194798357_2053059891_2053059864_2053059891" />
	<connection from="194798757_2053062089_2053059891_2053062058" to="194798357_2053059891_2053059886_2053059891" />
	<connection from="194798757_2053062089_2053059891_2053062058" to="194798757_2053059891_2053062089_2053059891" />
	<connection from="210712574_2048531832_2048524766_2048531832" to="210712574_2048531832_2048524766_2048528961" />
	<connection from="210712574_2048531832_2048524766_2048528961" to="311050747_2048524766_2048531852_2048524766" />
	<connection from="210712574_2048531832_2048524766_2048528961" to="194331215_2048524766_2048524759_2048524766" />
	<connection from="194332381_898091751_1270711691_898091751" to="194332381_898091751_1270711691_898090515" />
	<connection from="194332381_898091751_1270711691_898090515" to="194332381_898091751_1270711691_898090942" />
	<connection from="194332381_898091751_1270711691_898090942" to="194332381_898091751_1270711691_2048539544" />
	<connection from="194332381_898091751_1270711691_2048539544" to="194332381_898091751_1270711691_898092007" />
	<connection from="194332381_898091751_1270711691_898092007" to="194332381_898091751_1270711691_2048522073" />
	<connection from="194332381_898091751_1270711691_2048522073" to="194332381_898091751_1270711691_2048539588" />
	<connection from="194332381_898091751_1270711691_2048539588" to="194332381_898091751_1270711691_2048522071" />
	<connection from="194332381_898091751_1270711691_2048522071" to="194332381_898091751_1270711691_898090195" />
	<connection from="194332381_898091751_1270711691_898090195" to="194332381_898091751_1270711691_898091177" />
	<connection from="194332381_898091751_1270711691_898091177" to="194332381_898091751_1270711691_2048541439" />
	<connection from="194332381_898091751_1270711691_2048541439" to="194332381_898091751_1270711691_2048541447" />
	<connection from="194332381_898091751_1270711691_2048541447" to="194332381_898091751_1270711691_2501528188" />
	<connection from="194332381_898091751_1270711691_2501528188" to="194332381_898091751_1270711691_1358328962" />
	<connection from="194332381_898091751_1270711691_1358328962" to="194332381_898091751_1270711691_2501518991" />
	<connection from="194332381_898091751_1270711691_2501518991" to="194332381_898091751_1270711691_2048513204" />
	<connection from="194332381_898091751_1270711691_2048513204" to="194332381_898091751_1270711691_898091948" />
	<connection from="194332381_898091751_1270711691_898091948" to="194332381_898091751_1270711691_2052984272" />
	<connection from="194332381_898091751_1270711691_2052984272" to="194332381_898091751_1270711691_2052999571" />
	<connection from="194332381_898091751_1270711691_2052999571" to="194332381_898091751_1270711691_2052981811" />
	<connection from="194332381_898091751_1270711691_2052981811" to="194332381_898091751_1270711691_2053012776" />
	<connection from="194332381_898091751_1270711691_2053012776" to="194332381_898091751_1270711691_1270711714" />
	<connection from="194332381_898091751_1270711691_1270711714" to="194332381_898091751_1270711691_1270711720" />
	<connection from="194332381_898091751_1270711691_1270711720" to="194332381_898091751_1270711691_1270711628" />
	<connection from="194332381_898091751_1270711691_1270711628" to="194332381_898091751_1270711691_1270711640" />
	<connection from="194332381_898091751_1270711691_1270711640" to="194332381_898091751_1270711691_1270711685" />
	<connection from="194332381_898091751_1270711691_1270711685" to="194332381_898091751_1270711691_1270711711" />
	<connection from="194332381_898091751_1270711691_1270711711" to="194332381_898091751_1270711691_1270711619" />
	<connection from="194332381_898091751_1270711691_1270711619" to="194332381_898091751_1270711691_1270711624" />
	<connection from="194332381_898091751_1270711691_1270711624" to="194332381_898091751_1270711691_1270711665" />
	<connection from="194332381_898091751_1270711691_1270711665" to="194332381_898091751_1270711691_1270711677" />
	<connection from="194332381_898091751_1270711691_1270711677" to="194332381_898091751_1270711691_1270711717" />
	<connection from="194332381_898091751_1270711691_1270711717" to="194332381_898091751_1270711691_1270711724" />
	<connection from="194332381_898091751_1270711691_1270711724" to="194332381_898091751_1270711691_1270711632" />
	<connection from="194332381_898091751_1270711691_1270711632" to="194332381_898091751_1270711691_2063481015" />
	<connection from="194332381_898091751_1270711691_2063481015" to="194332381_898091751_1270711691_1270711675" />
	<connection from="194332381_898091751_1270711691_1270711675" to="194332381_1270711691_898091751_1270711691" />
	<connection from="249309718_2207832566_2053070913_2207832566" to="249309718_2053070913_898090880_2053070913" />
	<connection from="249309718_2207832566_2053070913_2207832566" to="249309718_2053070913_2207832566_2053070913" />
	<connection from="194798357_2053059891_2053059864_2053059891" to="194798357_2053059891_2053059864_2053059862" />
	<connection from="194798357_2053059891_2053059864_2053059862" to="194798356_2053059864_2053059875_2053059864" />
	<connection from="194798357_2053059891_2053059864_2053059862" to="194798357_2053059864_2053059891_2053059864" />
	<connection from="194797991_2053036527_2053039156_2053036527" to="194797991_2053036527_2053039156_2053039140" />
	<connection from="194797991_2053036527_2053039156_2053039140" to="194797991_2053036527_2053039156_2053039145" />
	<connection from="194797991_2053036527_2053039156_2053039145" to="194797991_2053036527_2053039156_2053039157" />
	<connection from="194797991_2053036527_2053039156_2053039157" to="194797991_2053036527_2053039156_2053039149" />
	<connection from="194797991_2053036527_2053039156_2053039149" to="194797991_2053036527_2053039156_2053039159" />
	<connection from="194797991_2053036527_2053039156_2053039159" to="194797991_2053036527_2053039156_2053039152" />
	<connection from="194797991_2053036527_2053039156_2053039152" to="194797991_2053039156_2053036527_2053039156" />
	<connection from="198186546_2207832561_898090906_2207832561" to="198186546_2207832561_898090906_2207832564" />
	<connection from="198186546_2207832561_898090906_2207832564" to="210712568_898090906_2083536978_898090906" />
	<connection from="198186546_2207832561_898090906_2207832564" to="206312136_898090906_2083542517_898090906" />
	<connection from="194797991_2053039156_2053036527_2053039156" to="194797991_2053039156_2053036527_2053039152" />
	<connection from="194797991_2053039156_2053036527_2053039152" to="194797991_2053039156_2053036527_2053039159" />
	<connection from="194797991_2053039156_2053036527_2053039159" to="194797991_2053039156_2053036527_2053039149" />
	<connection from="194797991_2053039156_2053036527_2053039149" to="194797991_2053039156_2053036527_2053039157" />
	<connection from="194797991_2053039156_2053036527_2053039157" to="194797991_2053039156_2053036527_2053039145" />
	<connection from="194797991_2053039156_2053036527_2053039145" to="194797991_2053039156_2053036527_2053039140" />
	<connection from="194797991_2053039156_2053036527_2053039140" to="194797893_2053036527_2053036530_2053036527" />
	<connection from="194797991_2053039156_2053036527_2053039140" to="194797991_2053036527_2053039156_2053036527" />
	<connection from="194797991_2053039156_2053036527_2053039140" to="194797991_2053036527_2053039133_2053036527" />
	<connection from="210712566_2053070930_2207832566_2053070930" to="249309718_2207832566_2053070913_2207832566" />
	<connection from="210712566_2053070930_2207832566_2053070930" to="249309718_2207832566_2207832565_2207832566" />
	<connection from="194799911_2053084422_2053084424_2053084422" to="194799233_2053084424_2053083124_2053084424" />
	<connection from="194799911_2053084422_2053084424_2053084422" to="194799233_2053084424_2053064594_2053084424" />
	<connection from="194799233_2053077720_2053064582_2053077720" to="194799233_2053064582_2053077720_2053064582" />
	<connection from="194799233_2053077720_2053064582_2053077720" to="210712570_2053064582_2083536968_2053064582" />
	<connection from="194799230_2053070899_2053070911_2053070899" to="194799230_2053070899_2053070911_2053070908" />
	<connection from="194799230_2053070899_2053070911_2053070908" to="194799233_2053070911_2053064594_2053070911" />
	<connection from="194799230_2053070899_2053070911_2053070908" to="210712572_2053070911_2053070930_2053070911" />
	<connection from="249309718_2053070905_898090292_2053070905" to="249309718_2053070905_898090292_898091972" />
	<connection from="249309718_2053070905_898090292_898091972" to="249309718_2053070905_898090292_898090924" />
	<connection from="249309718_2053070905_898090292_898090924" to="249309718_2053070905_898090292_898090483" />
	<connection from="249309718_2053070905_898090292_898090483" to="249309718_2053070905_898090292_898089853" />
	<connection from="249309718_2053070905_898090292_898089853" to="249309718_2053070905_898090292_898091706" />
	<connection from="249309718_2053070905_898090292_898091706" to="249309718_2053070905_898090292_898090750" />
	<connection from="249309718_2053070905_898090292_898090750" to="249309718_2053070905_898090292_898090233" />
	<connection from="249309718_2053070905_898090292_898090233" to="249309718_2053070905_898090292_898092038" />
	<connection from="249309718_2053070905_898090292_898092038" to="249309718_2053070905_898090292_898091442" />
	<connection from="249309718_2053070905_898090292_898091442" to="249309718_2053070905_898090292_898090549" />
	<connection from="249309718_2053070905_898090292_898090549" to="249309718_2053070905_898090292_898089943" />
	<connection from="249309718_2053070905_898090292_898089943" to="249309718_2053070905_898090292_898091793" />
	<connection from="249309718_2053070905_898090292_898091793" to="249309718_2053070905_898090292_898091203" />
	<connection from="249309718_2053070905_898090292_898091203" to="198186545_898090292_2083536984_898090292" />
	<connection from="249309718_2053070905_898090292_898091203" to="249309718_898090292_2053070905_898090292" />
	<connection from="194334475_2048544598_2048544098_2048544598" to="194334475_2048544598_2048544098_2258008395" />
	<connection from="194334475_2048544598_2048544098_2258008395" to="194334475_2048544598_2048544098_2048544605" />
	<connection from="194334475_2048544598_2048544098_2048544605" to="194334475_2048544598_2048544098_2048544599" />
	<connection from="194334475_2048544598_2048544098_2048544599" to="194334428_2048544098_2048544089_2048544098" />
	<connection from="194334475_2048544598_2048544098_2048544599" to="194334475_2048544098_2048544598_2048544098" />
	<connection from="194334475_2048544598_2048544098_2048544599" to="194334475_2048544098_2048544602_2048544098" />
	<connection from="198187092_2083542691_2083542518_2083542691" to="198187092_2083542691_2083542518_2083542688" />
	<connection from="198187092_2083542691_2083542518_2083542688" to="198186904_2083542518_2083542517_2083542518" />
	<connection from="198187092_2083542691_2083542518_2083542688" to="198186904_2083542518_2083542526_2083542518" />
	<connection from="198187092_2083542691_2083542518_2083542688" to="198187092_2083542518_2083542691_2083542518" />
	<connection from="194799469_2053074770_2053059886_2053074770" to="194798357_2053059886_2053059891_2053059886" />
	<connection from="194799469_2053074770_2053059886_2053074770" to="194799469_2053059886_2053074770_2053059886" />
	<connection from="194799469_2053074770_2053059886_2053074770" to="194799470_2053059886_2053074768_2053059886" />
	<connection from="198186755_2083539752_2083539746_2083539752" to="198186755_2083539752_2083539746_2083539740" />
	<connection from="198186755_2083539752_2083539746_2083539740" to="198186755_2083539752_2083539746_2083539732" />
	<connection from="198186755_2083539752_2083539746_2083539732" to="198186755_2083539752_2083539746_2083539742" />
	<connection from="198186755_2083539752_2083539746_2083539742" to="198186755_2083539752_2083539746_2083539728" />
	<connection from="198186755_2083539752_2083539746_2083539728" to="198186755_2083539752_2083539746_2083539725" />
	<connection from="198186755_2083539752_2083539746_2083539725" to="198186755_2083539752_2083539746_2083539748" />
	<connection from="198186755_2083539752_2083539746_2083539748" to="198186755_2083539752_2083539746_2083539744" />
	<connection from="198186755_2083539752_2083539746_2083539744" to="198186755_2083539746_2083539752_2083539746" />
	<connection from="194334475_2048544098_2048544598_2048544098" to="194334475_2048544098_2048544598_2048544599" />
	<connection from="194334475_2048544098_2048544598_2048544599" to="194334475_2048544098_2048544598_2048544605" />
	<connection from="194334475_2048544098_2048544598_2048544605" to="194334475_2048544098_2048544598_2258008395" />
	<connection from="194334475_2048544098_2048544598_2258008395" to="194334476_2048544598_2048539564_2048544598" />
	<connection from="194334475_2048544098_2048544598_2258008395" to="194334475_2048544598_2048539552_2048544598" />
	<connection from="194334475_2048544098_2048544598_2258008395" to="194334475_2048544598_2048544098_2048544598" />
	<connection from="194331215_2048524759_2048524766_2048524759" to="194331215_2048524759_2048524766_2048524764" />
	<connection from="194331215_2048524759_2048524766_2048524764" to="194331215_2048524759_2048524766_2048524760" />
	<connection from="194331215_2048524759_2048524766_2048524760" to="194331215_2048524759_2048524766_2048524763" />
	<connection from="194331215_2048524759_2048524766_2048524763" to="194331215_2048524759_2048524766_2048524762" />
	<connection from="194331215_2048524759_2048524766_2048524762" to="194331215_2048524759_2048524766_2048524752" />
	<connection from="194331215_2048524759_2048524766_2048524752" to="194331215_2048524759_2048524766_2048524758" />
	<connection from="194331215_2048524759_2048524766_2048524758" to="194331215_2048524759_2048524766_2048524757" />