<?xml version="1.0" encoding="UTF-8"?>

<!-- generated on Tue Jun  9 00:46:01 2020 by Eclipse SUMO netconvert Version 1.2.0
<configuration xmlns:xsi="http://www.w3.org/2001/XMLSchema-instance" xsi:noNamespaceSchemaLocation="http://sumo.dlr.de/xsd/netconvertConfiguration.xsd">

    <input>
        <node-files value="/home/vsimrti/scenarios/ids/sumo/gualtar10/gualtar10.nod.xml"/>
        <edge-files value="/home/vsimrti/scenarios/ids/sumo/gualtar10/gualtar10.edg.xml"/>
        <connection-files value="/home/vsimrti/scenarios/ids/sumo/gualtar10/gualtar10.con.xml"/>
    </input>

    <output>
        <output-file value="/home/vsimrti/scenarios/ids/sumo/gualtar10/gualtar10.net.xml"/>
    </output>

</configuration>
-->

<net version="1.1" junctionCornerDetail="5" limitTurnSpeed="5.50" xmlns:xsi="http://www.w3.org/2001/XMLSchema-instance" xsi:noNamespaceSchemaLocation="http://sumo.dlr.de/xsd/net_file.xsd">

    <location netOffset="-615667.56,-4568700.23" convBoundary="0.00,0.00,4132.44,3464.45" origBoundary="615667.56,4568700.23,619800.00,4572164.68" projParameter="!"/>

    <edge id=":1270711619_0" function="internal">
        <lane id=":1270711619_0_0" index="0" speed="18.06" length="0.20" shape="1254.68,2.65 1254.62,2.65 1254.58,2.65 1254.54,2.66 1254.48,2.67"/>
    </edge>
    <edge id=":1270711619_1" function="internal">
        <lane id=":1270711619_1_0" index="0" speed="18.06" length="0.60" shape="1254.00,-0.50 1254.18,-0.53 1254.30,-0.54 1254.42,-0.55 1254.60,-0.55"/>
    </edge>
    <edge id=":1270711624_0" function="internal">
        <lane id=":1270711624_0_0" index="0" speed="18.06" length="0.10" shape="1196.05,11.41 1196.15,11.39"/>
    </edge>
    <edge id=":1270711624_1" function="internal">
        <lane id=":1270711624_1_0" index="0" speed="18.06" length="0.10" shape="1195.48,8.26 1195.58,8.25"/>
    </edge>
    <edge id=":1270711628_0" function="internal">
        <lane id=":1270711628_0_0" index="0" speed="18.06" length="0.17" shape="1414.46,19.32 1414.41,19.31 1414.38,19.30 1414.35,19.29 1414.30,19.27"/>
    </edge>
    <edge id=":1270711628_1" function="internal">
        <lane id=":1270711628_1_0" index="0" speed="18.06" length="0.51" shape="1415.04,16.16 1415.19,16.20 1415.29,16.22 1415.39,16.26 1415.53,16.31"/>
    </edge>
    <edge id=":1270711632_0" function="internal">
        <lane id=":1270711632_0_0" index="0" speed="18.06" length="0.30" shape="650.96,115.36 650.66,115.38"/>
    </edge>
    <edge id=":1270711632_1" function="internal">
        <lane id=":1270711632_1_0" index="0" speed="18.06" length="0.19" shape="650.58,112.18 650.77,112.17"/>
    </edge>
    <edge id=":1270711640_0" function="internal">
        <lane id=":1270711640_0_0" index="0" speed="18.06" length="0.12" shape="1374.86,9.87 1374.75,9.85"/>
    </edge>
    <edge id=":1270711640_1" function="internal">
        <lane id=":1270711640_1_0" index="0" speed="18.06" length="0.36" shape="1375.25,6.69 1375.61,6.76"/>
    </edge>
    <edge id=":1270711665_0" function="internal">
        <lane id=":1270711665_0_0" index="0" speed="18.06" length="0.30" shape="949.14,63.89 948.85,63.95"/>
    </edge>
    <edge id=":1270711665_1" function="internal">
        <lane id=":1270711665_1_0" index="0" speed="18.06" length="0.30" shape="948.19,60.82 948.48,60.76"/>
    </edge>
    <edge id=":1270711675_0" function="internal">
        <lane id=":1270711675_0_0" index="0" speed="18.06" length="0.21" shape="19.80,116.49 19.73,116.49 19.69,116.50 19.65,116.50 19.59,116.51"/>
    </edge>
    <edge id=":1270711675_1" function="internal">
        <lane id=":1270711675_1_0" index="0" speed="18.06" length="0.62" shape="19.19,113.33 19.37,113.31 19.50,113.30 19.62,113.29 19.81,113.29"/>
    </edge>
    <edge id=":1270711677_0" function="internal">
        <lane id=":1270711677_0_0" index="0" speed="18.06" length="0.28" shape="753.82,105.19 753.54,105.24"/>
    </edge>
    <edge id=":1270711677_1" function="internal">
        <lane id=":1270711677_1_0" index="0" speed="18.06" length="0.15" shape="753.01,102.08 753.15,102.06"/>
    </edge>
    <edge id=":1270711685_0" function="internal">
        <lane id=":1270711685_0_0" index="0" speed="18.06" length="0.20" shape="1330.28,2.71 1330.22,2.70 1330.18,2.69 1330.14,2.69 1330.08,2.69"/>
    </edge>
    <edge id=":1270711685_1" function="internal">
        <lane id=":1270711685_1_0" index="0" speed="18.06" length="0.60" shape="1330.19,-0.51 1330.37,-0.50 1330.49,-0.49 1330.61,-0.48 1330.79,-0.45"/>
    </edge>
    <edge id=":1270711691_0" function="internal">
        <lane id=":1270711691_0_0" index="0" speed="3.65" length="4.67" shape="0.20,118.94 -1.09,118.29 -1.59,117.55 -1.29,116.70 -0.20,115.76"/>
    </edge>
    <edge id=":1270711711_0" function="internal">
        <lane id=":1270711711_0_0" index="0" speed="18.06" length="0.10" shape="1298.70,1.60 1298.79,1.60"/>
    </edge>
    <edge id=":1270711711_1" function="internal">
        <lane id=":1270711711_1_0" index="0" speed="18.06" length="0.10" shape="1298.72,-1.60 1298.81,-1.60"/>
    </edge>
    <edge id=":1270711714_0" function="internal">
        <lane id=":1270711714_0_0" index="0" speed="18.06" length="0.11" shape="1472.68,40.79 1472.58,40.75"/>
    </edge>
    <edge id=":1270711714_1" function="internal">
        <lane id=":1270711714_1_0" index="0" speed="18.06" length="0.33" shape="1473.73,37.76 1474.04,37.89"/>
    </edge>
    <edge id=":1270711717_0" function="internal">
        <lane id=":1270711717_0_0" index="0" speed="18.06" length="0.35" shape="728.30,109.50 727.95,109.55"/>
    </edge>
    <edge id=":1270711717_1" function="internal">
        <lane id=":1270711717_1_0" index="0" speed="18.06" length="0.12" shape="727.65,106.36 727.76,106.35"/>
    </edge>
    <edge id=":1270711720_0" function="internal">
        <lane id=":1270711720_0_0" index="0" speed="18.06" length="0.22" shape="1444.92,30.09 1444.71,30.02"/>
    </edge>
    <edge id=":1270711720_1" function="internal">
        <lane id=":1270711720_1_0" index="0" speed="18.06" length="0.31" shape="1445.78,27.00 1446.07,27.11"/>
    </edge>
    <edge id=":1270711724_0" function="internal">
        <lane id=":1270711724_0_0" index="0" speed="18.06" length="0.29" shape="690.91,113.05 690.62,113.07"/>
    </edge>
    <edge id=":1270711724_1" function="internal">
        <lane id=":1270711724_1_0" index="0" speed="18.06" length="0.17" shape="690.44,109.88 690.61,109.87"/>
    </edge>
    <edge id=":1358328962_0" function="internal">
        <lane id=":1358328962_0_0" index="0" speed="18.06" length="0.25" shape="1959.94,268.09 1959.72,267.98"/>
    </edge>
    <edge id=":1358328962_1" function="internal">
        <lane id=":1358328962_1_0" index="0" speed="18.06" length="0.31" shape="1961.07,265.08 1961.35,265.21"/>
    </edge>
    <edge id=":2048513204_0" function="internal">
        <lane id=":2048513204_0_0" index="0" speed="18.06" length="0.30" shape="1841.85,213.25 1841.59,213.12"/>
    </edge>
    <edge id=":2048513204_1" function="internal">
        <lane id=":2048513204_1_0" index="0" speed="18.06" length="0.30" shape="1842.93,210.22 1843.20,210.34"/>
    </edge>
    <edge id=":2048522071_0" function="internal">
        <lane id=":2048522071_0_0" index="0" speed="18.06" length="0.10" shape="2182.44,365.58 2182.44,365.58"/>
    </edge>
    <edge id=":2048522071_1" function="internal">
        <lane id=":2048522071_1_0" index="0" speed="18.06" length="0.10" shape="2183.02,362.44 2183.02,362.44"/>
    </edge>
    <edge id=":2048522073_0" function="internal">
        <lane id=":2048522073_0_0" index="0" speed="18.06" length="0.30" shape="2204.20,369.59 2203.91,369.54"/>
    </edge>
    <edge id=":2048522073_1" function="internal">
        <lane id=":2048522073_1_0" index="0" speed="18.06" length="0.30" shape="2204.49,366.39 2204.78,366.44"/>
    </edge>
    <edge id=":2048524752_0" function="internal">
        <lane id=":2048524752_0_0" index="0" speed="7.79" length="2.40" shape="2329.51,307.40 2329.20,308.04 2328.93,308.45 2328.58,308.80 2328.02,309.23"/>
    </edge>
    <edge id=":2048524752_1" function="internal">
        <lane id=":2048524752_1_0" index="0" speed="13.89" length="0.80" shape="2326.11,306.66 2326.30,306.51 2326.42,306.40 2326.51,306.26 2326.61,306.05"/>
    </edge>
    <edge id=":2048524757_0" function="internal">
        <lane id=":2048524757_0_0" index="0" speed="13.89" length="0.92" shape="2339.99,286.88 2339.76,287.01 2339.61,287.12 2339.49,287.27 2339.35,287.51"/>
    </edge>
    <edge id=":2048524757_1" function="internal">
        <lane id=":2048524757_1_0" index="0" speed="7.33" length="2.77" shape="2336.55,285.96 2336.96,285.25 2337.31,284.80 2337.77,284.46 2338.48,284.06"/>
    </edge>
    <edge id=":2048524758_0" function="internal">
        <lane id=":2048524758_0_0" index="0" speed="13.89" length="0.11" shape="2335.92,293.69 2335.87,293.79"/>
    </edge>
    <edge id=":2048524758_1" function="internal">
        <lane id=":2048524758_1_0" index="0" speed="13.89" length="0.33" shape="2332.98,292.43 2333.13,292.14"/>
    </edge>
    <edge id=":2048524759_0" function="internal">
        <lane id=":2048524759_0_0" index="0" speed="3.65" length="4.67" shape="2174.72,302.53 2173.54,301.70 2173.17,300.89 2173.59,300.10 2174.80,299.33"/>
    </edge>
    <edge id=":2048524760_0" function="internal">
        <lane id=":2048524760_0_0" index="0" speed="13.89" length="0.14" shape="2280.45,312.32 2280.41,312.31 2280.39,312.30 2280.36,312.29 2280.31,312.29"/>
    </edge>
    <edge id=":2048524760_1" function="internal">
        <lane id=":2048524760_1_0" index="0" speed="13.89" length="0.43" shape="2280.81,309.13 2280.93,309.15 2281.02,309.16 2281.10,309.18 2281.22,309.21"/>
    </edge>
    <edge id=":2048524762_0" function="internal">
        <lane id=":2048524762_0_0" index="0" speed="6.78" length="3.60" shape="2316.93,317.43 2316.06,318.03 2315.38,318.34 2314.64,318.42 2313.59,318.35"/>
    </edge>
    <edge id=":2048524762_1" function="internal">
        <lane id=":2048524762_1_0" index="0" speed="4.27" length="1.20" shape="2313.91,315.17 2314.26,315.19 2314.51,315.16 2314.73,315.06 2315.02,314.86"/>
    </edge>
    <edge id=":2048524763_0" function="internal">
        <lane id=":2048524763_0_0" index="0" speed="13.89" length="0.69" shape="2299.12,316.89 2298.92,316.87 2298.78,316.85 2298.64,316.83 2298.45,316.78"/>
    </edge>
    <edge id=":2048524763_1" function="internal">
        <lane id=":2048524763_1_0" index="0" speed="13.89" length="0.23" shape="2299.22,313.67 2299.28,313.69 2299.33,313.70 2299.37,313.70 2299.44,313.71"/>
    </edge>
    <edge id=":2048524764_0" function="internal">
        <lane id=":2048524764_0_0" index="0" speed="13.89" length="0.21" shape="2225.96,303.84 2225.90,303.83 2225.85,303.82 2225.81,303.82 2225.75,303.82"/>
    </edge>
    <edge id=":2048524764_1" function="internal">
        <lane id=":2048524764_1_0" index="0" speed="13.89" length="0.62" shape="2225.83,300.62 2226.02,300.62 2226.14,300.63 2226.27,300.65 2226.45,300.67"/>
    </edge>
    <edge id=":2048524766_0" function="internal">
        <lane id=":2048524766_0_0" index="0" speed="8.07" length="6.12" shape="2354.25,285.90 2352.97,284.52 2351.72,283.52 2350.48,282.88 2349.26,282.62"/>
    </edge>
    <edge id=":2048524766_1" function="internal">
        <lane id=":2048524766_1_0" index="0" speed="4.86" length="7.96" shape="2356.72,283.87 2355.22,281.66 2355.09,280.35 2356.34,279.95 2358.96,280.46"/>
    </edge>
    <edge id=":2048524766_2" function="internal">
        <lane id=":2048524766_2_0" index="0" speed="13.89" length="10.82" shape="2349.47,279.42 2352.48,279.04 2354.62,277.98 2356.78,277.13 2359.85,277.38"/>
    </edge>
    <edge id=":2048524766_3" function="internal">
        <lane id=":2048524766_3_0" index="0" speed="3.65" length="4.67" shape="2349.47,279.42 2350.62,280.30 2350.96,281.12 2350.51,281.90 2349.26,282.62"/>
    </edge>
    <edge id=":2048524769_0" function="internal">
        <lane id=":2048524769_0_0" index="0" speed="13.89" length="0.90" shape="2348.52,282.57 2348.25,282.55 2348.07,282.57 2347.89,282.63 2347.65,282.75"/>
    </edge>
    <edge id=":2048524769_1" function="internal">
        <lane id=":2048524769_1_0" index="0" speed="7.38" length="2.71" shape="2346.14,279.94 2346.85,279.57 2347.38,279.39 2347.93,279.34 2348.73,279.37"/>
    </edge>
    <edge id=":2048527859_0" function="internal">
        <lane id=":2048527859_0_0" index="0" speed="13.89" length="0.22" shape="2416.86,300.16 2416.67,300.28"/>
    </edge>
    <edge id=":2048527860_0" function="internal">
        <lane id=":2048527860_0_0" index="0" speed="18.06" length="0.12" shape="2399.62,297.31 2399.73,297.27"/>
    </edge>
    <edge id=":2048527862_0" function="internal">
        <lane id=":2048527862_0_0" index="0" speed="13.89" length="0.10" shape="2407.33,306.91 2407.39,306.86"/>
    </edge>
    <edge id=":2048527864_0" function="internal">
        <lane id=":2048527864_0_0" index="0" speed="18.06" length="0.29" shape="2411.24,292.63 2411.51,292.52"/>
    </edge>
    <edge id=":2048528959_0" function="internal">
        <lane id=":2048528959_0_0" index="0" speed="7.19" length="1.95" shape="2364.67,278.77 2365.49,279.03 2366.03,279.29 2366.49,279.68 2367.05,280.33"/>
        <lane id=":2048528959_0_1" index="1" speed="13.89" length="1.95" shape="2363.79,281.85 2364.06,281.93 2364.24,282.02 2364.39,282.15 2364.58,282.37"/>
    </edge>
    <edge id=":2048528961_0" function="internal">
        <lane id=":2048528961_0_0" index="0" speed="13.89" length="0.81" shape="2363.08,296.38 2362.93,296.45"/>
        <lane id=":2048528961_0_1" index="1" speed="6.68" length="0.81" shape="2366.19,295.60 2366.06,295.20 2365.90,294.96 2365.69,294.74 2365.40,294.42"/>
    </edge>
    <edge id=":2048528962_0" function="internal">
        <lane id=":2048528962_0_0" index="0" speed="13.89" length="0.19" shape="2374.94,289.92 2374.80,289.80"/>
        <lane id=":2048528962_0_1" index="1" speed="13.89" length="0.19" shape="2372.47,291.95 2372.50,292.00 2372.52,292.03 2372.54,292.06 2372.58,292.10"/>
    </edge>
    <edge id=":2048531770_0" function="internal">
        <lane id=":2048531770_0_0" index="0" speed="10.21" length="1.15" shape="2366.75,329.04 2366.32,328.78 2366.03,328.57 2365.79,328.32 2365.46,327.93"/>
        <lane id=":2048531770_0_1" index="1" speed="18.06" length="1.15" shape="2368.38,326.29 2368.24,326.20 2368.14,326.13 2368.06,326.05 2367.95,325.92"/>
    </edge>
    <edge id=":2048531778_0" function="internal">
        <lane id=":2048531778_0_0" index="0" speed="10.11" length="1.15" shape="2359.67,317.36 2359.51,316.87 2359.44,316.52 2359.41,316.17 2359.43,315.66"/>
        <lane id=":2048531778_0_1" index="1" speed="18.06" length="1.15" shape="2362.71,316.34 2362.65,316.18 2362.63,316.07 2362.62,315.95 2362.63,315.78"/>
    </edge>
    <edge id=":2048531782_0" function="internal">
        <lane id=":2048531782_0_0" index="0" speed="10.17" length="1.15" shape="2362.15,323.83 2361.84,323.43 2361.64,323.14 2361.50,322.82 2361.33,322.34"/>
        <lane id=":2048531782_0_1" index="1" speed="18.06" length="1.15" shape="2364.64,321.82 2364.54,321.69 2364.47,321.59 2364.42,321.48 2364.37,321.32"/>
    </edge>
    <edge id=":2048531787_0" function="internal">
        <lane id=":2048531787_0_0" index="0" speed="18.06" length="4.07" shape="2361.09,305.99 2361.75,304.42 2362.30,303.39 2363.01,302.45 2364.12,301.16"/>
        <lane id=":2048531787_0_1" index="1" speed="13.72" length="4.07" shape="2364.06,307.17 2364.29,306.50 2364.41,306.02 2364.60,305.58 2365.02,305.02"/>
    </edge>
    <edge id=":2048531791_0" function="internal">
        <lane id=":2048531791_0_0" index="0" speed="17.82" length="12.74" shape="2354.51,316.92 2356.80,314.69 2358.32,312.52 2359.55,309.86 2361.01,306.17"/>
    </edge>
    <edge id=":2048531791_1" function="internal">
        <lane id=":2048531791_1_0" index="0" speed="18.06" length="7.90" shape="2359.47,314.41 2359.56,311.90 2359.72,310.18 2360.14,308.51 2361.01,306.17"/>
        <lane id=":2048531791_1_1" index="1" speed="18.06" length="7.90" shape="2362.67,314.52 2362.74,312.35 2362.87,310.85 2363.23,309.39 2363.99,307.36"/>
    </edge>
    <edge id=":2048531796_0" function="internal">
        <lane id=":2048531796_0_0" index="0" speed="18.06" length="0.44" shape="2370.70,331.93 2371.28,331.73"/>
        <lane id=":2048531796_0_1" index="1" speed="18.06" length="0.44" shape="2372.65,329.03 2372.91,328.97"/>
    </edge>
    <edge id=":2048531808_0" function="internal">
        <lane id=":2048531808_0_0" index="0" speed="10.10" length="1.16" shape="2386.61,331.71 2386.17,331.97 2385.85,332.12 2385.51,332.21 2385.01,332.31"/>
        <lane id=":2048531808_0_1" index="1" speed="18.06" length="1.16" shape="2384.97,328.96 2384.82,329.05 2384.72,329.10 2384.60,329.13 2384.44,329.16"/>
    </edge>
    <edge id=":2048531811_0" function="internal">
        <lane id=":2048531811_0_0" index="0" speed="6.72" length="9.59" shape="2403.62,309.83 2401.53,311.90 2400.48,313.95 2400.47,316.00 2401.50,318.04"/>
    </edge>
    <edge id=":2048531811_1" function="internal">
        <lane id=":2048531811_1_0" index="0" speed="15.01" length="13.16" shape="2403.62,309.83 2401.21,312.01 2399.58,314.23 2398.32,317.02 2397.00,320.90"/>
    </edge>
    <edge id=":2048531811_2" function="internal">
        <lane id=":2048531811_2_0" index="0" speed="15.97" length="12.46" shape="2397.57,307.98 2397.57,311.72 2397.16,314.44 2397.30,316.93 2398.96,319.99"/>
    </edge>
    <edge id=":2048531811_3" function="internal">
        <lane id=":2048531811_3_0" index="0" speed="18.06" length="10.61" shape="2397.57,307.98 2398.08,311.84 2398.32,314.54 2398.03,317.19 2397.00,320.90"/>
        <lane id=":2048531811_3_1" index="1" speed="16.36" length="10.61" shape="2394.82,311.97 2395.06,314.35 2395.02,316.00 2394.67,317.62 2393.95,319.91"/>
    </edge>
    <edge id=":2048531815_0" function="internal">
        <lane id=":2048531815_0_0" index="0" speed="18.06" length="2.00" shape="2370.70,295.99 2371.62,295.51 2372.30,295.28 2373.02,295.15 2374.04,294.93"/>
        <lane id=":2048531815_0_1" index="1" speed="18.06" length="2.00" shape="2372.36,298.73 2372.48,298.66 2372.56,298.62 2372.66,298.59 2372.79,298.55"/>
    </edge>
    <edge id=":2048531819_0" function="internal">
        <lane id=":2048531819_0_0" index="0" speed="7.78" length="3.41" shape="2396.71,305.68 2397.11,306.26 2397.34,306.70 2397.46,307.18 2397.56,307.88"/>
        <lane id=":2048531819_0_1" index="1" speed="10.35" length="3.41" shape="2394.10,307.52 2394.70,308.63 2394.82,309.51 2394.75,310.45 2394.80,311.77"/>
    </edge>
    <edge id=":2048531823_0" function="internal">
        <lane id=":2048531823_0_0" index="0" speed="18.06" length="0.10" shape="2352.80,318.38 2352.73,318.43"/>
    </edge>
    <edge id=":2048531827_0" function="internal">
        <lane id=":2048531827_0_0" index="0" speed="9.01" length="1.29" shape="2383.88,294.86 2384.45,294.93 2384.83,295.01 2385.20,295.16 2385.70,295.43"/>
        <lane id=":2048531827_0_1" index="1" speed="18.06" length="1.29" shape="2383.55,298.04 2383.74,298.06 2383.87,298.09 2383.99,298.14 2384.16,298.23"/>
    </edge>
    <edge id=":2048531829_0" function="internal">
        <lane id=":2048531829_0_0" index="0" speed="18.06" length="0.28" shape="2345.38,335.23 2345.30,335.25 2345.24,335.26 2345.19,335.28 2345.11,335.31"/>
    </edge>
    <edge id=":2048531832_0" function="internal">
        <lane id=":2048531832_0_0" index="0" speed="6.49" length="4.66" shape="2364.26,301.01 2364.39,300.13 2364.02,298.87 2363.49,297.57 2363.13,296.57"/>
    </edge>
    <edge id=":2048531832_1" function="internal">
        <lane id=":2048531832_1_0" index="0" speed="7.14" length="5.77" shape="2364.26,301.01 2365.32,299.59 2366.01,298.25 2366.31,296.99 2366.23,295.80"/>
    </edge>
    <edge id=":2048531832_2" function="internal">
        <lane id=":2048531832_2_0" index="0" speed="18.06" length="8.64" shape="2364.26,301.01 2365.84,299.28 2367.06,298.22 2368.43,297.34 2370.45,296.14"/>
        <lane id=":2048531832_2_1" index="1" speed="18.06" length="8.64" shape="2365.08,304.94 2366.90,302.85 2368.25,301.50 2369.76,300.35 2372.11,298.88"/>
    </edge>
    <edge id=":2048531835_0" function="internal">
        <lane id=":2048531835_0_0" index="0" speed="18.06" length="0.18" shape="2358.68,332.81 2358.50,332.84"/>
    </edge>
    <edge id=":2048531838_0" function="internal">
        <lane id=":2048531838_0_0" index="0" speed="18.06" length="0.11" shape="2340.30,327.81 2340.39,327.74"/>
    </edge>
    <edge id=":2048531841_0" function="internal">
        <lane id=":2048531841_0_0" index="0" speed="10.05" length="1.16" shape="2392.47,327.85 2392.15,328.25 2391.90,328.50 2391.61,328.71 2391.17,328.98"/>
        <lane id=":2048531841_0_1" index="1" speed="18.06" length="1.16" shape="2389.97,325.86 2389.86,325.99 2389.77,326.08 2389.68,326.15 2389.53,326.24"/>
    </edge>
    <edge id=":2048531844_0" function="internal">
        <lane id=":2048531844_0_0" index="0" speed="8.62" length="6.99" shape="2389.40,297.47 2391.16,298.27 2392.86,298.69 2394.52,298.74 2396.14,298.42"/>
    </edge>
    <edge id=":2048531844_1" function="internal">
        <lane id=":2048531844_1_0" index="0" speed="15.01" length="6.89" shape="2389.40,297.47 2391.30,298.64 2392.46,299.66 2393.40,300.93 2394.67,302.80"/>
        <lane id=":2048531844_1_1" index="1" speed="13.54" length="6.89" shape="2387.85,300.27 2389.39,301.23 2390.30,302.08 2391.04,303.12 2392.06,304.64"/>
    </edge>
    <edge id=":2048531848_0" function="internal">
        <lane id=":2048531848_0_0" index="0" speed="10.15" length="1.15" shape="2396.58,322.19 2396.42,322.67 2396.28,322.99 2396.09,323.29 2395.77,323.69"/>
        <lane id=":2048531848_0_1" index="1" speed="18.06" length="1.15" shape="2393.54,321.20 2393.48,321.36 2393.44,321.47 2393.37,321.57 2393.27,321.70"/>
    </edge>
    <edge id=":2048531852_0" function="internal">
        <lane id=":2048531852_0_0" index="0" speed="10.88" length="9.35" shape="2375.07,290.05 2376.75,291.88 2377.94,293.22 2379.34,294.13 2381.64,294.63"/>
        <lane id=":2048531852_0_1" index="1" speed="12.15" length="9.35" shape="2372.85,292.36 2374.99,294.61 2376.56,296.20 2378.38,297.23 2381.31,297.81"/>
    </edge>
    <edge id=":2048531852_2" function="internal">
        <lane id=":2048531852_2_0" index="0" speed="18.06" length="8.00" shape="2374.24,294.88 2376.39,294.40 2377.90,294.27 2379.43,294.38 2381.64,294.63"/>
        <lane id=":2048531852_2_1" index="1" speed="18.06" length="8.00" shape="2372.89,298.53 2375.34,297.91 2377.06,297.61 2378.79,297.59 2381.31,297.81"/>
    </edge>
    <edge id=":2048539542_0" function="internal">
        <lane id=":2048539542_0_0" index="0" speed="13.89" length="0.23" shape="2413.01,329.59 2413.09,329.67"/>
        <lane id=":2048539542_0_1" index="1" speed="13.89" length="0.23" shape="2410.74,331.85 2410.99,332.08"/>
    </edge>
    <edge id=":2048539544_0" function="internal">
        <lane id=":2048539544_0_0" index="0" speed="18.06" length="0.10" shape="2225.55,370.84 2225.55,370.84"/>
    </edge>
    <edge id=":2048539544_1" function="internal">
        <lane id=":2048539544_1_0" index="0" speed="18.06" length="0.10" shape="2225.48,367.64 2225.48,367.64"/>
    </edge>
    <edge id=":2048539548_0" function="internal">
        <lane id=":2048539548_0_0" index="0" speed="13.89" length="0.94" shape="2933.78,432.27 2933.50,432.25 2933.31,432.27 2933.12,432.33 2932.88,432.46"/>
    </edge>
    <edge id=":2048539548_1" function="internal">
        <lane id=":2048539548_1_0" index="0" speed="7.27" length="2.83" shape="2931.35,429.64 2932.10,429.26 2932.65,429.07 2933.23,429.03 2934.06,429.08"/>
    </edge>
    <edge id=":2048539550_0" function="internal">
        <lane id=":2048539550_0_0" index="0" speed="13.89" length="0.26" shape="2837.59,447.88 2837.37,447.74"/>
    </edge>
    <edge id=":2048539550_1" function="internal">
        <lane id=":2048539550_1_0" index="0" speed="13.89" length="0.31" shape="2838.96,444.97 2839.23,445.13"/>
    </edge>
    <edge id=":2048539552_0" function="internal">
        <lane id=":2048539552_0_0" index="0" speed="8.78" length="12.89" shape="2732.16,391.74 2729.66,391.72 2727.14,392.83 2724.62,395.09 2722.08,398.50"/>
    </edge>
    <edge id=":2048539552_1" function="internal">
        <lane id=":2048539552_1_0" index="0" speed="13.89" length="16.17" shape="2732.16,391.74 2728.29,391.12 2724.15,390.92 2719.99,391.03 2716.06,391.33"/>
    </edge>
    <edge id=":2048539552_2" function="internal">
        <lane id=":2048539552_2_0" index="0" speed="3.65" length="2.20" shape="2732.16,391.74 2731.18,390.69 2731.01,389.95"/>
    </edge>
    <edge id=":2048539552_9" function="internal">
        <lane id=":2048539552_9_0" index="0" speed="3.65" length="2.48" shape="2731.01,389.95 2730.98,389.82 2731.55,389.13 2732.91,388.63"/>
    </edge>
    <edge id=":2048539552_3" function="internal">
        <lane id=":2048539552_3_0" index="0" speed="13.89" length="17.22" shape="2715.75,388.14 2719.85,387.86 2724.37,387.77 2728.87,388.00 2732.91,388.63"/>
    </edge>
    <edge id=":2048539552_4" function="internal">
        <lane id=":2048539552_4_0" index="0" speed="7.38" length="7.60" shape="2715.75,388.14 2721.32,388.30 2723.05,389.35"/>
    </edge>
    <edge id=":2048539552_5" function="internal">
        <lane id=":2048539552_5_0" index="0" speed="3.65" length="2.34" shape="2715.75,388.14 2717.02,388.83 2717.50,389.58"/>
    </edge>
    <edge id=":2048539552_10" function="internal">
        <lane id=":2048539552_10_0" index="0" speed="7.38" length="10.37" shape="2723.05,389.35 2724.23,390.07 2724.49,393.47 2722.08,398.50"/>
    </edge>
    <edge id=":2048539552_11" function="internal">
        <lane id=":2048539552_11_0" index="0" speed="3.65" length="2.34" shape="2717.50,389.58 2717.18,390.42 2716.06,391.33"/>
    </edge>
    <edge id=":2048539552_6" function="internal">
        <lane id=":2048539552_6_0" index="0" speed="5.54" length="9.44" shape="2719.38,396.77 2720.65,394.13 2720.52,392.34 2718.99,391.41 2716.06,391.33"/>
    </edge>
    <edge id=":2048539552_7" function="internal">
        <lane id=":2048539552_7_0" index="0" speed="9.97" length="16.84" shape="2719.38,396.77 2722.60,392.56 2725.92,389.80 2729.36,388.49 2732.91,388.63"/>
    </edge>
    <edge id=":2048539552_8" function="internal">
        <lane id=":2048539552_8_0" index="0" speed="3.65" length="4.67" shape="2719.38,396.77 2720.71,396.19 2721.59,396.29 2722.05,397.05 2722.08,398.50"/>
    </edge>
    <edge id=":2048539554_0" function="internal">
        <lane id=":2048539554_0_0" index="0" speed="13.89" length="1.40" shape="2877.09,458.82 2876.69,458.90 2876.40,458.93 2876.12,458.93 2875.70,458.89"/>
    </edge>
    <edge id=":2048539554_1" function="internal">
        <lane id=":2048539554_1_0" index="0" speed="13.89" length="0.47" shape="2876.00,455.71 2876.14,455.72 2876.23,455.72 2876.33,455.71 2876.46,455.68"/>
    </edge>
    <edge id=":2048539556_0" function="internal">
        <lane id=":2048539556_0_0" index="0" speed="11.55" length="1.59" shape="3053.61,536.19 3053.42,535.76 3053.31,535.45 3053.25,535.13 3053.20,534.67"/>
    </edge>
    <edge id=":2048539556_1" function="internal">
        <lane id=":2048539556_1_0" index="0" speed="13.89" length="0.53" shape="3056.38,534.34 3056.40,534.50 3056.42,534.60 3056.46,534.71 3056.52,534.85"/>
    </edge>
    <edge id=":2048539558_0" function="internal">
        <lane id=":2048539558_0_0" index="0" speed="13.89" length="0.29" shape="3018.81,461.97 3018.75,461.91 3018.70,461.87 3018.65,461.84 3018.57,461.80"/>
    </edge>
    <edge id=":2048539558_1" function="internal">
        <lane id=":2048539558_1_0" index="0" speed="13.89" length="0.88" shape="3020.23,459.06 3020.45,459.19 3020.60,459.29 3020.74,459.41 3020.94,459.58"/>
    </edge>
    <edge id=":2048539560_0" function="internal">
        <lane id=":2048539560_0_0" index="0" speed="13.89" length="0.46" shape="2745.71,395.05 2745.60,394.99 2745.51,394.94 2745.42,394.92 2745.29,394.88"/>
    </edge>
    <edge id=":2048539560_1" function="internal">
        <lane id=":2048539560_1_0" index="0" speed="13.89" length="1.38" shape="2746.03,391.77 2746.43,391.87 2746.70,391.96 2746.95,392.08 2747.31,392.28"/>
    </edge>
    <edge id=":2048539561_0" function="internal">
        <lane id=":2048539561_0_0" index="0" speed="8.31" length="2.15" shape="2853.56,456.83 2852.93,456.77 2852.50,456.67 2852.10,456.50 2851.55,456.18"/>
    </edge>
    <edge id=":2048539561_1" function="internal">
        <lane id=":2048539561_1_0" index="0" speed="13.89" length="0.72" shape="2853.18,453.43 2853.37,453.54 2853.50,453.59 2853.64,453.63 2853.85,453.65"/>
    </edge>
    <edge id=":2048539562_0" function="internal">
        <lane id=":2048539562_0_0" index="0" speed="13.89" length="0.27" shape="2629.02,396.34 2628.75,396.35"/>
    </edge>
    <edge id=":2048539562_1" function="internal">
        <lane id=":2048539562_1_0" index="0" speed="13.89" length="0.31" shape="2628.56,393.16 2628.87,393.14"/>
    </edge>
    <edge id=":2048539563_0" function="internal">
        <lane id=":2048539563_0_0" index="0" speed="13.89" length="0.20" shape="2984.72,441.34 2984.67,441.31 2984.62,441.31 2984.58,441.31 2984.52,441.30"/>
    </edge>
    <edge id=":2048539563_1" function="internal">
        <lane id=":2048539563_1_0" index="0" speed="12.84" length="1.10" shape="2985.30,438.19 2985.62,438.27 2985.84,438.33 2986.05,438.41 2986.33,438.57"/>
    </edge>
    <edge id=":2048539564_0" function="internal">
        <lane id=":2048539564_0_0" index="0" speed="9.29" length="11.97" shape="2701.96,400.03 2699.77,396.99 2697.50,394.85 2695.14,393.62 2692.72,393.29"/>
    </edge>
    <edge id=":2048539564_1" function="internal">