<nodes>
	<node id="898089932" x="619546.8150" y="4569346.3633" z="0.0000" type="priority" />
	<node id="2083536994" x="618624.9940" y="4568818.1181" z="0.0000" type="priority" />
	<node id="2083536996" x="618600.1657" y="4568846.9302" z="0.0000" type="priority" />
	<node id="2083536990" x="618612.5987" y="4568813.1187" z="0.0000" type="priority" />
	<node id="2083536992" x="618626.8142" y="4568844.2109" z="0.0000" type="priority" />
	<node id="3165887927" x="618616.9330" y="4568850.5017" z="0.0000" type="priority" />
	<node id="898089943" x="618504.4003" y="4568808.2575" z="0.0000" type="priority" />
	<node id="2063481015" x="616200.9068" y="4568816.9238" z="0.0000" type="priority" />
	<node id="898090924" x="618291.3046" y="4568888.7425" z="0.0000" type="priority" />
	<node id="2083536982" x="618629.2745" y="4568823.8514" z="0.0000" type="priority" />
	<node id="2083536984" x="618600.5616" y="4568816.9869" z="0.0000" type="priority" />
	<node id="2083533233" x="618605.9013" y="4568856.4406" z="0.0000" type="priority" />
	<node id="2083536980" x="618630.2690" y="4568837.8930" z="0.0000" type="priority" />
	<node id="2053083124" x="618329.6666" y="4568938.0832" z="0.0000" type="priority" />
	<node id="2083536987" x="618593.3032" y="4568828.9285" z="0.0000" type="priority" />
	<node id="2083536986" x="618605.8793" y="4568850.0772" z="0.0000" type="priority" />
	<node id="2083536988" x="618631.1227" y="4568830.7554" z="0.0000" type="priority" />
	<node id="2501528188" x="617644.1057" y="4568974.6611" z="0.0000" type="priority" />
	<node id="2083545488" x="619101.4729" y="4569208.8761" z="0.0000" type="priority" />
	<node id="898090938" x="618868.4680" y="4569117.8810" z="0.0000" type="priority" />
	<node id="2053077718" x="618555.3769" y="4568977.6373" z="0.0000" type="priority" />
	<node id="2053077717" x="618526.2049" y="4569003.1030" z="0.0000" type="priority" />
	<node id="2053075892" x="618415.7766" y="4568975.8303" z="0.0000" type="priority" />
	<node id="2053075888" x="618413.0396" y="4568977.1961" z="0.0000" type="priority" />
	<node id="2163156838" x="619774.9069" y="4569506.8723" z="0.0000" type="priority" />
	<node id="898090942" x="617916.4304" y="4569068.9963" z="0.0000" type="priority" />
	<node id="2053084424" x="618326.9600" y="4568938.0947" z="0.0000" type="priority" />
	<node id="2053084422" x="618324.7603" y="4568947.1205" z="0.0000" type="priority" />
	<node id="2052984272" x="617325.5350" y="4568825.9654" z="0.0000" type="priority" />
	<node id="2163156660" x="619800.0032" y="4569511.3056" z="0.0000" type="priority" />
	<node id="2048524752" x="617995.2823" y="4569007.6879" z="0.0000" type="priority" />
	<node id="3165883650" x="619309.1428" y="4569271.7900" z="0.0000" type="priority" />
	<node id="2053064600" x="618346.0481" y="4568938.0720" z="0.0000" type="priority" />
	<node id="2053064607" x="618406.2966" y="4568966.2480" z="0.0000" type="priority" />
	<node id="2048524760" x="617948.2647" y="4569010.9566" z="0.0000" type="priority" />
	<node id="2048524762" x="617982.5441" y="4569017.1092" z="0.0000" type="priority" />
	<node id="2053074770" x="618412.0117" y="4568987.8400" z="0.0000" type="priority" />
	<node id="2048524763" x="617966.6164" y="4569015.5073" z="0.0000" type="priority" />
	<node id="2053064608" x="618427.1269" y="4568984.2771" z="0.0000" type="priority" />
	<node id="2083536972" x="618606.2489" y="4568814.0369" z="0.0000" type="priority" />
	<node id="2083536974" x="618595.7914" y="4568822.2728" z="0.0000" type="priority" />
	<node id="2048524757" x="618005.9715" y="4568986.1403" z="0.0000" type="priority" />
	<node id="2048524758" x="618002.0355" y="4568993.2390" z="0.0000" type="priority" />
	<node id="2053074764" x="618420.2941" y="4568985.5429" z="0.0000" type="priority" />
	<node id="2048524759" x="617842.3279" y="4569001.1557" z="0.0000" type="priority" />
	<node id="2083536970" x="618618.8964" y="4568814.3652" z="0.0000" type="priority" />
	<node id="2053074766" x="618408.0801" y="4568976.1048" z="0.0000" type="priority" />
	<node id="2053074768" x="618405.8248" y="4568983.9082" z="0.0000" type="priority" />
	<node id="2083536976" x="618612.3228" y="4568851.1150" z="0.0000" type="priority" />
	<node id="2083536978" x="618621.2512" y="4568848.7842" z="0.0000" type="priority" />
	<node id="2048544598" x="618378.9561" y="4569112.4648" z="0.0000" type="priority" />
	<node id="2048544599" x="618347.2734" y="4569169.2393" z="0.0000" type="priority" />
	<node id="2048524764" x="617893.5616" y="4569002.4521" z="0.0000" type="priority" />
	<node id="2048524766" x="618024.4182" y="4568981.7421" z="0.0000" type="priority" />
	<node id="898090906" x="618668.0570" y="4568867.3374" z="0.0000" type="priority" />
	<node id="2048524769" x="618015.2696" y="4568981.1384" z="0.0000" type="priority" />
	<node id="2083536968" x="618595.8461" y="4568842.0514" z="0.0000" type="priority" />
	<node id="2083536966" x="618593.4389" y="4568836.0267" z="0.0000" type="priority" />
	<node id="898091292" x="619089.1157" y="4569198.5351" z="0.0000" type="priority" />
	<node id="2053041907" x="619330.1240" y="4569277.3756" z="0.0000" type="priority" />
	<node id="2083539063" x="618636.9247" y="4568825.3975" z="0.0000" type="priority" />
	<node id="2083545504" x="619077.2945" y="4569189.7464" z="0.0000" type="priority" />
	<node id="4498269218" x="616692.0067" y="4572164.6779" z="0.0000" type="priority" />
	<node id="2083539069" x="618652.5162" y="4568809.6163" z="0.0000" type="priority" />
	<node id="2207832564" x="618655.9491" y="4568854.4804" z="0.0000" type="priority" />
	<node id="2207832561" x="618637.5609" y="4568835.2024" z="0.0000" type="priority" />
	<node id="2207832565" x="618246.6440" y="4568912.4250" z="0.0000" type="priority" />
	<node id="2207832566" x="618242.2098" y="4568914.5850" z="0.0000" type="priority" />
	<node id="2053036540" x="619039.8150" y="4569287.0781" z="0.0000" type="priority" />
	<node id="4498269212" x="617244.9414" y="4571361.2135" z="0.0000" type="priority" />
	<node id="4498269207" x="617465.2101" y="4571077.2871" z="0.0000" type="priority" />
	<node id="4498269205" x="617431.7822" y="4571143.9869" z="0.0000" type="priority" />
	<node id="2053036536" x="619018.6080" y="4569319.8681" z="0.0000" type="priority" />
	<node id="2053036538" x="619066.4748" y="4569262.5950" z="0.0000" type="priority" />
	<node id="898091177" x="617775.6939" y="4569036.0674" z="0.0000" type="priority" />
	<node id="3165881673" x="619717.3703" y="4569475.3533" z="0.0000" type="priority" />
	<node id="898092028" x="619488.5317" y="4569367.3158" z="0.0000" type="priority" />
	<node id="3165881674" x="619738.4142" y="4569493.3676" z="0.0000" type="priority" />
	<node id="1270711714" x="617140.8241" y="4568739.5259" z="0.0000" type="priority" />
	<node id="2083539081" x="618641.6862" y="4568816.0249" z="0.0000" type="priority" />
	<node id="2053036530" x="619083.6613" y="4569255.8470" z="0.0000" type="priority" />
	<node id="1270711711" x="616966.3198" y="4568700.2284" z="0.0000" type="priority" />
	<node id="4498269243" x="617197.0982" y="4571430.1803" z="0.0000" type="priority" />
	<node id="4498269241" x="617393.1094" y="4571256.9759" z="0.0000" type="priority" />
	<node id="2083539083" x="618665.1477" y="4568805.2694" z="0.0000" type="priority" />
	<node id="2048531808" x="618051.7155" y="4569027.8147" z="0.0000" type="priority" />
	<node id="4498269237" x="617305.6258" y="4571331.7429" z="0.0000" type="priority" />
	<node id="898092038" x="618422.2088" y="4568825.6865" z="0.0000" type="priority" />
	<node id="2053036527" x="618998.5236" y="4569338.3402" z="0.0000" type="priority" />
	<node id="2048539542" x="618077.3322" y="4569033.3720" z="0.0000" type="priority" />
	<node id="2053036529" x="619030.5412" y="4569304.3944" z="0.0000" type="priority" />
	<node id="2048539544" x="617893.0789" y="4569069.4729" z="0.0000" type="priority" />
	<node id="1270711724" x="616358.2088" y="4568811.6976" z="0.0000" type="priority" />
	<node id="1270711720" x="617112.9347" y="4568728.7828" z="0.0000" type="priority" />
	<node id="898092055" x="618817.2020" y="4569092.4352" z="0.0000" type="priority" />
	<node id="2207832560" x="618636.5427" y="4568830.8438" z="0.0000" type="priority" />
	<node id="2083539077" x="618638.2652" y="4568809.9947" z="0.0000" type="priority" />
	<node id="4498269234" x="616822.6186" y="4571973.0193" z="0.0000" type="priority" />
	<node id="2083539073" x="618687.4326" y="4568800.9022" z="0.0000" type="priority" />
	<node id="4498269231" x="616751.4487" y="4572076.4275" z="0.0000" type="priority" />
	<node id="2083539071" x="618664.0811" y="4568801.3097" z="0.0000" type="priority" />
	<node id="1358328962" x="617628.0861" y="4568966.8175" z="0.0000" type="priority" />
	<node id="2048531819" x="618060.3548" y="4569008.6769" z="0.0000" type="priority" />
	<node id="2052981811" x="617200.5321" y="4568766.7612" z="0.0000" type="priority" />
	<node id="2052999571" x="617310.1723" y="4568818.3885" z="0.0000" type="priority" />
	<node id="2048531815" x="618040.7491" y="4569000.3300" z="0.0000" type="priority" />
	<node id="2083539079" x="618673.6640" y="4568799.4449" z="0.0000" type="priority" />
	<node id="2048531811" x="618061.2096" y="4569015.8978" z="0.0000" type="priority" />
	<node id="898091199" x="619587.6013" y="4569361.2369" z="0.0000" type="priority" />
	<node id="1270711717" x="616395.4772" y="4568808.1739" z="0.0000" type="priority" />
	<node id="2207832557" x="618579.1435" y="4568824.7332" z="0.0000" type="priority" />
	<node id="2048513204" x="617509.9556" y="4568911.9609" z="0.0000" type="priority" />
	<node id="2053059875" x="618131.5732" y="4569074.9517" z="0.0000" type="priority" />
	<node id="2053059872" x="618124.3022" y="4569062.9625" z="0.0000" type="priority" />
	<node id="2053059870" x="618137.3713" y="4569066.1953" z="0.0000" type="priority" />
	<node id="2048547103" x="618021.0660" y="4569549.9107" z="0.0000" type="priority" />
	<node id="2048547101" x="617498.2376" y="4570697.4027" z="0.0000" type="priority" />
	<node id="2048547102" x="617833.7907" y="4569790.4480" z="0.0000" type="priority" />
	<node id="3870140521" x="618148.6890" y="4569088.5221" z="0.0000" type="priority" />
	<node id="2048547100" x="618062.7191" y="4569499.5932" z="0.0000" type="priority" />
	<node id="2053059867" x="618224.3116" y="4569047.1302" z="0.0000" type="priority" />
	<node id="898090399" x="618149.9535" y="4568961.6366" z="0.0000" type="priority" />
	<node id="898091007" x="619039.9482" y="4569162.6945" z="0.0000" type="priority" />
	<node id="898090292" x="618560.3308" y="4568815.0320" z="0.0000" type="priority" />
	<node id="898091264" x="619693.0616" y="4569461.2387" z="0.0000" type="priority" />
	<node id="2053070899" x="618253.6261" y="4568917.9576" z="0.0000" type="priority" />
	<node id="898091141" x="618187.6254" y="4568942.5929" z="0.0000" type="priority" />
	<node id="898091140" x="619452.1388" y="4569376.2351" z="0.0000" type="priority" />
	<node id="2048527860" x="618067.7844" y="4568999.0253" z="0.0000" type="priority" />
	<node id="2083538164" x="618653.2833" y="4568858.6679" z="0.0000" type="priority" />
	<node id="2053059886" x="618400.4911" y="4568993.4604" z="0.0000" type="priority" />
	<node id="2083538165" x="618592.7877" y="4568817.8818" z="0.0000" type="priority" />
	<node id="2048527864" x="618079.5502" y="4568994.2856" z="0.0000" type="priority" />
	<node id="2053059883" x="618131.9808" y="4569061.7213" z="0.0000" type="priority" />
	<node id="2048527862" x="618073.9666" y="4569005.8329" z="0.0000" type="priority" />
	<node id="2053059880" x="618301.0116" y="4569041.5585" z="0.0000" type="priority" />
	<node id="2083538169" x="618629.3890" y="4568849.2056" z="0.0000" type="priority" />
	<node id="2048527859" x="618083.4266" y="4568999.1236" z="0.0000" type="priority" />
	<node id="2083538167" x="618640.1287" y="4568852.4457" z="0.0000" type="priority" />
	<node id="2083542691" x="618696.6683" y="4568914.3113" z="0.0000" type="priority" />
	<node id="898091393" x="618774.8540" y="4568961.5835" z="0.0000" type="priority" />
	<node id="2048528961" x="618035.1497" y="4568994.7867" z="0.0000" type="priority" />
	<node id="4498269202" x="617498.6744" y="4571008.8890" z="0.0000" type="priority" />
	<node id="2053059896" x="618121.0888" y="4569066.3195" z="0.0000" type="priority" />
	<node id="4498269201" x="617408.4695" y="4571196.4250" z="0.0000" type="priority" />
	<node id="2053059893" x="618256.0407" y="4569045.7247" z="0.0000" type="priority" />
	<node id="2048528962" x="618039.0336" y="4568993.4838" z="0.0000" type="priority" />
	<node id="2048547116" x="617862.3744" y="4569746.1364" z="0.0000" type="priority" />
	<node id="2053059891" x="618186.1552" y="4569042.3792" z="0.0000" type="priority" />
	<node id="2048544098" x="618191.2010" y="4569313.5747" z="0.0000" type="priority" />
	<node id="2083546809" x="619168.6247" y="4569235.2727" z="0.0000" type="priority" />
	<node id="2048544094" x="618062.6306" y="4569315.0628" z="0.0000" type="priority" />
	<node id="2048528959" x="618030.9068" y="4568983.6131" z="0.0000" type="priority" />
	<node id="2048544096" x="617935.5151" y="4569171.5033" z="0.0000" type="priority" />
	<node id="2048544097" x="617952.8589" y="4569210.2960" z="0.0000" type="priority" />
	<node id="2053059888" x="618352.0432" y="4569026.9417" z="0.0000" type="priority" />
	<node id="2048544090" x="618128.4151" y="4569388.1344" z="0.0000" type="priority" />
	<node id="2048544091" x="618173.6488" y="4569096.3344" z="0.0000" type="priority" />
	<node id="6071550012" x="617204.5332" y="4571419.4619" z="0.0000" type="priority" />
	<node id="898090195" x="617831.1326" y="4569060.7072" z="0.0000" type="priority" />
	<node id="2048547109" x="618735.3151" y="4569263.3237" z="0.0000" type="priority" />
	<node id="2048547107" x="617627.4808" y="4570541.9479" z="0.0000" type="priority" />
	<node id="2048547108" x="617555.3171" y="4570391.2546" z="0.0000" type="priority" />
	<node id="2083542688" x="618680.8108" y="4568907.3675" z="0.0000" type="priority" />
	<node id="2048547106" x="617635.7655" y="4570529.5446" z="0.0000" type="priority" />
	<node id="2048544087" x="617964.6060" y="4569151.3866" z="0.0000" type="priority" />
	<node id="2048547114" x="618144.0261" y="4569464.3894" z="0.0000" type="priority" />
	<node id="2053043081" x="619503.4401" y="4569361.5418" z="0.0000" type="priority" />
	<node id="2048547115" x="617560.4504" y="4570407.4506" z="0.0000" type="priority" />
	<node id="2048544089" x="618074.6257" y="4569198.0682" z="0.0000" type="priority" />
	<node id="2048547113" x="617898.1418" y="4569730.0588" z="0.0000" type="priority" />
	<node id="2048544083" x="618013.2003" y="4569142.2914" z="0.0000" type="priority" />
	<node id="2048547110" x="617670.1045" y="4570351.9231" z="0.0000" type="priority" />
	<node id="2048544084" x="617996.2929" y="4569137.5641" z="0.0000" type="priority" />
	<node id="2048547111" x="617978.6257" y="4569617.2838" z="0.0000" type="priority" />
	<node id="2048522073" x="617871.9087" y="4569068.2193" z="0.0000" type="priority" />
	<node id="2048544085" x="618096.1856" y="4569352.3311" z="0.0000" type="priority" />
	<node id="2053059899" x="618385.4410" y="4569004.8644" z="0.0000" type="priority" />
	<node id="2048522071" x="617850.2968" y="4569064.2380" z="0.0000" type="priority" />
	<node id="898092007" x="617880.1374" y="4569069.7408" z="0.0000" type="priority" />
	<node id="2048541439" x="617724.7923" y="4569012.1900" z="0.0000" type="priority" />
	<node id="898090483" x="618306.5060" y="4568881.4384" z="0.0000" type="priority" />
	<node id="6071022859" x="618826.7091" y="4569541.4717" z="0.0000" type="priority" />
	<node id="3870142352" x="619118.0282" y="4569221.7512" z="0.0000" type="priority" />
	<node id="2083542513" x="618625.9205" y="4568883.6074" z="0.0000" type="priority" />
	<node id="2083542515" x="618651.2857" y="4568885.5868" z="0.0000" type="priority" />
	<node id="2083542514" x="618675.6345" y="4569045.4275" z="0.0000" type="priority" />
	<node id="6071022861" x="618890.7888" y="4569498.8654" z="0.0000" type="priority" />
	<node id="6071022860" x="618860.0149" y="4569514.7311" z="0.0000" type="priority" />
	<node id="898090233" x="618394.9449" y="4568837.9023" z="0.0000" type="priority" />
	<node id="898091442" x="618450.1942" y="4568815.4814" z="0.0000" type="priority" />
	<node id="6071022863" x="618912.8312" y="4569443.0905" z="0.0000" type="priority" />
	<node id="6071022862" x="618906.1919" y="4569466.3689" z="0.0000" type="priority" />
	<node id="898091203" x="618549.4442" y="4568812.5781" z="0.0000" type="priority" />
	<node id="898091687" x="619437.9206" y="4569368.5502" z="0.0000" type="priority" />
	<node id="6071022864" x="618917.7852" y="4569427.5802" z="0.0000" type="priority" />
	<node id="1270711665" x="616616.2289" y="4568762.5812" z="0.0000" type="priority" />
	<node id="2053047735" x="619429.1611" y="4569360.6108" z="0.0000" type="priority" />
	<node id="2053047738" x="619413.6857" y="4569347.3307" z="0.0000" type="priority" />
	<node id="2048539590" x="618558.3155" y="4569154.6744" z="0.0000" type="priority" />
	<node id="2048539592" x="618163.7583" y="4569095.5074" z="0.0000" type="priority" />
	<node id="2048547099" x="617531.6499" y="4570910.1337" z="0.0000" type="priority" />
	<node id="2048539594" x="618718.9417" y="4569201.2690" z="0.0000" type="priority" />
	<node id="2048547098" x="618146.0700" y="4569435.5278" z="0.0000" type="priority" />
	<node id="2048547095" x="617680.1178" y="4570344.0231" z="0.0000" type="priority" />
	<node id="2083532941" x="618591.9941" y="4568861.4332" z="0.0000" type="priority" />
	<node id="2048547093" x="617726.9294" y="4569950.7925" z="0.0000" type="priority" />
	<node id="2048547094" x="617795.9272" y="4569880.6277" z="0.0000" type="priority" />
	<node id="2048547092" x="617935.8005" y="4569707.9266" z="0.0000" type="priority" />
	<node id="2083532942" x="618594.9295" y="4568850.9870" z="0.0000" type="priority" />
	<node id="2048531770" x="618036.7604" y="4569025.1401" z="0.0000" type="priority" />
	<node id="6071549994" x="617153.9915" y="4571492.7164" z="0.0000" type="priority" />
	<node id="1270711677" x="616420.9433" y="4568803.8729" z="0.0000" type="priority" />
	<node id="2048544605" x="618372.3551" y="4569142.2295" z="0.0000" type="priority" />
	<node id="2048544602" x="618118.4799" y="4569377.1792" z="0.0000" type="priority" />
	<node id="1270711675" x="615687.1593" y="4568815.1224" z="0.0000" type="priority" />
	<node id="2083542528" x="618674.1176" y="4568891.3339" z="0.0000" type="priority" />
	<node id="2083542527" x="618659.9496" y="4568891.7691" z="0.0000" type="priority" />
	<node id="2083542529" x="618624.6396" y="4568892.7925" z="0.0000" type="priority" />
	<node id="2083538157" x="618582.3211" y="4568817.4225" z="0.0000" type="priority" />
	<node id="898091468" x="618831.7913" y="4569108.7644" z="0.0000" type="priority" />
	<node id="2083542520" x="618645.3012" y="4568880.5587" z="0.0000" type="priority" />
	<node id="2053059864" x="618142.1793" y="4569059.0663" z="0.0000" type="priority" />
	<node id="1270711685" x="616997.9007" y="4568701.3246" z="0.0000" type="priority" />
	<node id="2083542522" x="618665.1399" y="4569028.2104" z="0.0000" type="priority" />
	<node id="2053059862" x="618163.6182" y="4569048.9315" z="0.0000" type="priority" />
	<node id="2083542521" x="618702.3541" y="4569102.5093" z="0.0000" type="priority" />
	<node id="2048541447" x="617702.9052" y="4569003.4518" z="0.0000" type="priority" />
	<node id="2053047759" x="619397.1199" y="4569331.5674" z="0.0000" type="priority" />
	<node id="2083542524" x="618631.1695" y="4568878.7625" z="0.0000" type="priority" />
	<node id="2083542523" x="618625.3588" y="4568904.1867" z="0.0000" type="priority" />
	<node id="2083542526" x="618655.7463" y="4569141.7931" z="0.0000" type="priority" />
	<node id="2083542525" x="618654.7277" y="4569005.4199" z="0.0000" type="priority" />
	<node id="2083542517" x="618684.1048" y="4568881.6246" z="0.0000" type="priority" />
	<node id="2083542516" x="618648.1195" y="4568983.1469" z="0.0000" type="priority" />
	<node id="2083542519" x="618637.6979" y="4568878.1915" z="0.0000" type="priority" />
	<node id="2053059859" x="618134.2464" y="4569070.8085" z="0.0000" type="priority" />
	<node id="2083542518" x="618667.7520" y="4568895.2834" z="0.0000" type="priority" />
	<node id="3870140175" x="618093.7074" y="4568992.4277" z="0.0000" type="priority" />
	<node id="911175125" x="618046.4799" y="4569028.7625" z="0.0000" type="priority" />
	<node id="2048531778" x="618031.7880" y="4569016.0646" z="0.0000" type="priority" />
	<node id="2053062089" x="618329.5958" y="4568953.7732" z="0.0000" type="priority" />
	<node id="4498269269" x="617376.1440" y="4571305.9408" z="0.0000" type="priority" />
	<node id="4498269267" x="617348.6803" y="4571336.9241" z="0.0000" type="priority" />
	<node id="4498269262" x="617269.5044" y="4571342.8092" z="0.0000" type="priority" />
	<node id="2048531827" x="618050.9457" y="4568999.8625" z="0.0000" type="priority" />
	<node id="2048531829" x="618012.3771" y="4569033.9394" z="0.0000" type="priority" />
	<node id="2048531823" x="618021.3277" y="4569019.8815" z="0.0000" type="priority" />
	<node id="2048539561" x="618520.5482" y="4569155.4027" z="0.0000" type="priority" />
	<node id="2048539560" x="618413.6745" y="4569093.6630" z="0.0000" type="priority" />
	<node id="2048539563" x="618652.9419" y="4569140.0928" z="0.0000" type="priority" />
	<node id="2048539562" x="618296.3642" y="4569094.9750" z="0.0000" type="priority" />
	<node id="2053062094" x="618210.3441" y="4568979.0305" z="0.0000" type="priority" />
	<node id="2048539565" x="618706.7089" y="4569178.1378" z="0.0000" type="priority" />
	<node id="2053012776" x="617181.2855" y="4568758.4003" z="0.0000" type="priority" />
	<node id="2048539564" x="618366.0814" y="4569091.6336" z="0.0000" type="priority" />
	<node id="2053062092" x="618319.3909" y="4568975.3616" z="0.0000" type="priority" />
	<node id="2048539567" x="618582.8389" y="4569140.3823" z="0.0000" type="priority" />
	<node id="2048539568" x="618094.3609" y="4569048.1846" z="0.0000" type="priority" />
	<node id="2048539548" x="618600.5236" y="4569130.8206" z="0.0000" type="priority" />
	<node id="1270711628" x="617082.3982" y="4568717.9861" z="0.0000" type="priority" />
	<node id="2053062078" x="618284.9612" y="4568977.9334" z="0.0000" type="priority" />
	<node id="2053070930" x="618241.7830" y="4568922.2848" z="0.0000" type="priority" />
	<node id="1270711624" x="616863.3809" y="4568710.0567" z="0.0000" type="priority" />
	<node id="2048531838" x="618008.8323" y="4569029.3178" z="0.0000" type="priority" />
	<node id="2048531835" x="618025.9074" y="4569031.4715" z="0.0000" type="priority" />
	<node id="2048539550" x="618505.8516" y="4569146.6570" z="0.0000" type="priority" />
	<node id="2048539552" x="618393.9934" y="4569088.9562" z="0.0000" type="priority" />
	<node id="2048539554" x="618543.8817" y="4569157.5708" z="0.0000" type="priority" />
	<node id="2048531832" x="618036.9750" y="4569002.6119" z="0.0000" type="priority" />
	<node id="2053062081" x="618325.1342" y="4568970.5023" z="0.0000" type="priority" />
	<node id="2048539556" x="618722.4089" y="4569235.2621" z="0.0000" type="priority" />
	<node id="2053062086" x="618321.2402" y="4568943.5652" z="0.0000" type="priority" />
	<node id="1270711619" x="616922.0013" y="4568701.2817" z="0.0000" type="priority" />
	<node id="3165888306" x="618651.2326" y="4568805.0868" z="0.0000" type="priority" />
	<node id="2048539558" x="618687.2174" y="4569160.8072" z="0.0000" type="priority" />
	<node id="2053062084" x="618329.0828" y="4568960.0724" z="0.0000" type="priority" />
	<node id="3165888305" x="618674.2680" y="4568802.9972" z="0.0000" type="priority" />
	<node id="2083550113" x="619355.0471" y="4569293.4424" z="0.0000" type="priority" />
	<node id="4498269280" x="617064.6350" y="4571619.6264" z="0.0000" type="priority" />
	<node id="1270711632" x="616318.3038" y="4568814.0023" z="0.0000" type="priority" />
	<node id="2048547088" x="617667.3759" y="4570187.1167" z="0.0000" type="priority" />
	<node id="2048547089" x="618121.6260" y="4569469.8113" z="0.0000" type="priority" />
	<node id="2048531848" x="618059.5777" y="4569020.9352" z="0.0000" type="priority" />
	<node id="2048547086" x="617712.2440" y="4569969.3553" z="0.0000" type="priority" />
	<node id="2048547087" x="617636.0841" y="4570509.8498" z="0.0000" type="priority" />
	<node id="2048547084" x="617766.6220" y="4569914.1895" z="0.0000" type="priority" />
	<node id="898091784" x="619567.6013" y="4569350.0142" z="0.0000" type="priority" />
	<node id="2048531841" x="618056.2760" y="4569025.0903" z="0.0000" type="priority" />
	<node id="2048539584" x="618073.7230" y="4569038.3994" z="0.0000" type="priority" />
	<node id="2048547085" x="618090.6629" y="4569481.4351" z="0.0000" type="priority" />
	<node id="898090693" x="618212.6375" y="4568929.6734" z="0.0000" type="priority" />
	<node id="2048531844" x="618056.1527" y="4569002.7343" z="0.0000" type="priority" />
	<node id="2048547082" x="617683.9715" y="4570327.9723" z="0.0000" type="priority" />
	<node id="2048539586" x="618058.8276" y="4569032.0500" z="0.0000" type="priority" />
	<node id="2048547083" x="617952.6943" y="4569664.3253" z="0.0000" type="priority" />
	<node id="2048547080" x="617495.7409" y="4570712.9757" z="0.0000" type="priority" />
	<node id="898091546" x="619018.0429" y="4569150.0541" z="0.0000" type="priority" />
	<node id="2048539588" x="617863.1536" y="4569066.6117" z="0.0000" type="priority" />
	<node id="2048547081" x="617560.9857" y="4570374.3336" z="0.0000" type="priority" />
	<node id="6071022608" x="617908.4615" y="4569723.9963" z="0.0000" type="priority" />
	<node id="1270711640" x="617042.6816" y="4568708.5189" z="0.0000" type="priority" />
	<node id="4498269279" x="616963.3961" y="4571768.4005" z="0.0000" type="priority" />
	<node id="4498269274" x="616709.5271" y="4572138.1300" z="0.0000" type="priority" />
	<node id="2501518991" x="617595.6594" y="4568951.7571" z="0.0000" type="priority" />
	<node id="2048539570" x="618065.5090" y="4569021.5200" z="0.0000" type="priority" />
	<node id="2048547077" x="617677.2172" y="4570134.4503" z="0.0000" type="priority" />
	<node id="2048547078" x="617493.2281" y="4570729.5479" z="0.0000" type="priority" />
	<node id="2048539574" x="618624.2940" y="4569132.9183" z="0.0000" type="priority" />
	<node id="2048531852" x="618045.0233" y="4568999.2445" z="0.0000" type="priority" />
	<node id="2048539576" x="618215.8049" y="4569099.8510" z="0.0000" type="priority" />
	<node id="898090221" x="619470.1849" y="4569373.7885" z="0.0000" type="priority" />
	<node id="898091793" x="618530.1551" y="4568809.9985" z="0.0000" type="priority" />
	<node id="2053039147" x="618982.4437" y="4569332.2582" z="0.0000" type="priority" />
	<node id="2053064587" x="618385.1178" y="4568944.3933" z="0.0000" type="priority" />
	<node id="2053039145" x="619014.5358" y="4569376.2143" z="0.0000" type="priority" />
	<node id="2053064585" x="618456.4268" y="4568981.8224" z="0.0000" type="priority" />
	<node id="2053039149" x="619056.3386" y="4569403.7722" z="0.0000" type="priority" />
	<node id="2053064589" x="618337.4186" y="4568943.6729" z="0.0000" type="priority" />
	<node id="2053039140" x="619009.4928" y="4569354.6439" z="0.0000" type="priority" />
	<node id="2053039144" x="618762.9311" y="4569287.4834" z="0.0000" type="priority" />
	<node id="2053039142" x="618843.2656" y="4569350.1386" z="0.0000" type="priority" />
	<node id="2083539746" x="619121.9937" y="4568914.5550" z="0.0000" type="priority" />
	<node id="898090515" x="617951.0760" y="4569061.3403" z="0.0000" type="priority" />
	<node id="2083539744" x="619099.1182" y="4568904.3305" z="0.0000" type="priority" />
	<node id="2083539742" x="618935.1366" y="4568844.3470" z="0.0000" type="priority" />
	<node id="2083539740" x="618880.4186" y="4568836.7232" z="0.0000" type="priority" />
	<node id="898090750" x="618369.1034" y="4568850.2524" z="0.0000" type="priority" />
	<node id="2053064590" x="618341.4406" y="4568940.5845" z="0.0000" type="priority" />
	<node id="2053070908" x="618253.9838" y="4568923.2715" z="0.0000" type="priority" />
	<node id="2053064595" x="618293.0439" y="4568939.9863" z="0.0000" type="priority" />
	<node id="2053064594" x="618313.4970" y="4568937.9535" z="0.0000" type="priority" />
	<node id="2053070905" x="618257.1510" y="4568907.2987" z="0.0000" type="priority" />
	<node id="2083539748" x="619063.7920" y="4568893.0250" z="0.0000" type="priority" />
	<node id="2053064577" x="618332.7194" y="4568947.7052" z="0.0000" type="priority" />
	<node id="2053039137" x="618946.0830" y="4569357.1826" z="0.0000" type="priority" />
	<node id="2053039135" x="618890.6809" y="4569391.6571" z="0.0000" type="priority" />
	<node id="2053064574" x="618398.4325" y="4568954.6821" z="0.0000" type="priority" />
	<node id="2053039138" x="618850.8059" y="4569367.0968" z="0.0000" type="priority" />
	<node id="2053064579" x="618274.5397" y="4568941.7176" z="0.0000" type="priority" />
	<node id="2053039132" x="618796.6293" y="4569315.7846" z="0.0000" type="priority" />
	<node id="2053039133" x="618934.9282" y="4569379.3877" z="0.0000" type="priority" />
	<node id="2053039130" x="618860.0927" y="4569376.6432" z="0.0000" type="priority" />
	<node id="2083539734" x="618819.1512" y="4568900.2195" z="0.0000" type="priority" />
	<node id="898091615" x="619134.1876" y="4569226.5688" z="0.0000" type="priority" />
	<node id="2083539732" x="618908.2004" y="4568842.0966" z="0.0000" type="priority" />
	<node id="898091972" x="618273.9802" y="4568897.7889" z="0.0000" type="priority" />
	<node id="2053064580" x="618442.4938" y="4568985.8487" z="0.0000" type="priority" />
	<node id="898090880" x="618111.5933" y="4568980.7693" z="0.0000" type="priority" />