<?xml version="1.0" ?>
<!-- Generated by VSimRTI -->
<routes>
	<vType id="default" length="7.5" maxSpeed="50" minGap="2.0" carFollowModel="Krauss" accel="0.80" decel="4.5" sigma="0.5" tau="1"/>
	<route id="1" edges="179464452_1898435362_1898435368_1898435362 179464452_1898435362_1898435368_1898435364 179464452_1898435362_1898435368_1898435366 179463099_1898435368_1898432400_1898435368 179463099_1898435368_1898432400_1898415246 179463099_1898435368_1898432400_1898415245 179463099_1898435368_1898432400_1898415248 179464180_1898432400_1898436234_1898432400 179464180_1898432400_1898436234_1898432403 179464180_1898432400_1898436234_1898432406 179464180_1898432400_1898436234_1898432437 179464180_1898432400_1898436234_1898432436 179464180_1898436234_1898432440_1898436234 179464180_1898432440_1898436227_1898432440 179464180_1898432440_1898436227_1898432391 179464180_1898432440_1898436227_1898432409 179464180_1898432440_1898436227_1898432397 179464180_1898436227_1898432438_1898436227 179464180_1898432438_1898432448_1898432438 179464180_1898432438_1898432448_1898432418 179464180_1898432448_1898434142_1898432448 179464180_1898434142_1898434144_1898434142 179464180_1898434142_1898434144_1898432421 179464180_1898434142_1898434144_1898432427 179464180_1898434144_1898432434_1898434144 146624036_1898432434_1898432408_1898432434 146624036_1898432408_1598921736_1898432408 146624036_1898432408_1598921736_1598921733 146624036_1598921736_1898432447_1598921736 146624036_1898432447_213748332_1898432447 146624036_1898432447_213748332_1598921792 146624036_1898432447_213748332_1598921716 146624036_1898432447_213748332_1898434887 146624036_1898432447_213748332_1818309383 146624036_213748332_1898432447_213748332" />
	<route id="2" edges="146624036_213748332_1898432447_1818309383 146624036_213748332_1898432447_1898434887 146624036_213748332_1898432447_1598921716 146624036_213748332_1898432447_1598921792 146624036_1898432447_1598921736_1898432447 146624036_1598921736_1898432408_1598921736 146624036_1598921736_1898432408_1598921733 146624036_1898432408_1898432434_1898432408 179464180_1898432434_1898434144_1898432434 179464180_1898434144_1898434142_1898434144 179464180_1898434144_1898434142_1898432427 179464180_1898434144_1898434142_1898432421 179464180_1898434142_1898432448_1898434142 179464180_1898432448_1898432438_1898432448 179464180_1898432448_1898432438_1898432418 179464180_1898432438_1898436227_1898432438 179464180_1898436227_1898432440_1898436227 179464180_1898436227_1898432440_1898432397 179464180_1898436227_1898432440_1898432409 179464180_1898436227_1898432440_1898432391 179464180_1898432440_1898436234_1898432440 179464180_1898436234_1898432400_1898436234 179464180_1898436234_1898432400_1898432436 179464180_1898436234_1898432400_1898432437 179464180_1898436234_1898432400_1898432406 179464180_1898436234_1898432400_1898432403 179463099_1898432400_1898435368_1898432400 179463099_1898432400_1898435368_1898415248 179463099_1898432400_1898435368_1898415245 179463099_1898432400_1898435368_1898415246 179464452_1898435368_1898435362_1898435368 179464452_1898435368_1898435362_1898435366 179464452_1898435368_1898435362_1898435364" />
	<route id="3" edges="146624036_1898432408_1898432434_1898432408 179464180_1898432434_1898434144_1898432434 179464180_1898434144_1898434142_1898434144 179464180_1898434144_1898434142_1898432427 179464180_1898434144_1898434142_1898432421 179464180_1898434142_1898432448_1898434142 179464180_1898432448_1898432438_1898432448 179464180_1898432448_1898432438_1898432418 179464180_1898432438_1898436227_1898432438 179464180_1898436227_1898432440_1898436227 179464180_1898436227_1898432440_1898432397 179464180_1898436227_1898432440_1898432409 179464180_1898436227_1898432440_1898432391 179464180_1898432440_1898436234_1898432440 179464180_1898436234_1898432400_1898436234 179464180_1898436234_1898432400_1898432436 179464180_1898436234_1898432400_1898432437 179464180_1898436234_1898432400_1898432406 179464180_1898436234_1898432400_1898432403 179463099_1898432400_1898435368_1898432400 179463099_1898432400_1898435368_1898415248 179463099_1898432400_1898435368_1898415245 179463099_1898432400_1898435368_1898415246 179463099_1898435368_3350462677_1898435368 179463099_1898435368_3350462677_1898415249 179463099_1898435368_3350462677_3424610174 179463099_1898435368_3350462677_1898415236 179463099_1898435368_3350462677_1898415200 179463099_3350462677_1898435368_3350462677" />
	<route id="4" edges="179463099_3350462677_1898435368_1898415200 179463099_3350462677_1898435368_1898415236 179463099_3350462677_1898435368_3424610174 179463099_3350462677_1898435368_1898415249 179463099_1898435368_1898432400_1898435368 179463099_1898435368_1898432400_1898415246 179463099_1898435368_1898432400_1898415245 179463099_1898435368_1898432400_1898415248 179464180_1898432400_1898436234_1898432400 179464180_1898432400_1898436234_1898432403 179464180_1898432400_1898436234_1898432406 179464180_1898432400_1898436234_1898432437 179464180_1898432400_1898436234_1898432436 179464180_1898436234_1898432440_1898436234 179464180_1898432440_1898436227_1898432440 179464180_1898432440_1898436227_1898432391 179464180_1898432440_1898436227_1898432409 179464180_1898432440_1898436227_1898432397 179464180_1898436227_1898432438_1898436227 179464180_1898432438_1898432448_1898432438 179464180_1898432438_1898432448_1898432418 179464180_1898432448_1898434142_1898432448 179464180_1898434142_1898434144_1898434142 179464180_1898434142_1898434144_1898432421 179464180_1898434142_1898434144_1898432427 179464180_1898434144_1898432434_1898434144 146624036_1898432434_1898432408_1898432434 146624036_1898432408_1598921736_1898432408 146624036_1898432408_1598921736_1598921733 146624036_1598921736_1898432408_1598921736 146624036_1598921736_1898432408_1598921733" />
	<route id="5" edges="179463099_1898415235_1898432400_1898415256 179463099_1898415235_1898432400_1898415225 179463099_1898415235_1898432400_1898415208 179464180_1898432400_1898436234_1898432400 179464180_1898432400_1898436234_1898432403 179464180_1898432400_1898436234_1898432406 179464180_1898432400_1898436234_1898432437 179464180_1898432400_1898436234_1898432436 179464180_1898436234_1898432440_1898436234 179464180_1898432440_1898436227_1898432440 179464180_1898432440_1898436227_1898432391 179464180_1898432440_1898436227_1898432409 179464180_1898432440_1898436227_1898432397 179464180_1898436227_1898432438_1898436227 179464180_1898432438_1898432448_1898432438 179464180_1898432438_1898432448_1898432418 179464180_1898432448_1898434142_1898432448 179464180_1898434142_1898434144_1898434142 179464180_1898434142_1898434144_1898432421 179464180_1898434142_1898434144_1898432427 179464180_1898434144_1898432434_1898434144 146624036_1898432434_1898432408_1898432434 146624036_1898432408_1598921736_1898432408 146624036_1898432408_1598921736_1598921733 146624036_1598921736_1898432447_1598921736 146624036_1898432447_213748332_1898432447 146624036_1898432447_213748332_1598921792 146624036_1898432447_213748332_1598921716 146624036_1898432447_213748332_1898434887 146624036_1898432447_213748332_1818309383 146624036_213748332_1898432447_213748332 146624036_213748332_1898432447_1818309383" />
	<route id="6" edges="146624036_213748332_1898432447_1898434887 146624036_213748332_1898432447_1598921716 146624036_213748332_1898432447_1598921792 146624036_1898432447_1598921736_1898432447 146624036_1598921736_1898432408_1598921736 146624036_1598921736_1898432408_1598921733 146624036_1898432408_1898432434_1898432408 179464180_1898432434_1898434144_1898432434 179464180_1898434144_1898434142_1898434144 179464180_1898434144_1898434142_1898432427 179464180_1898434144_1898434142_1898432421 179464180_1898434142_1898432448_1898434142 179464180_1898432448_1898432438_1898432448 179464180_1898432448_1898432438_1898432418 179464180_1898432438_1898436227_1898432438 179464180_1898436227_1898432440_1898436227 179464180_1898436227_1898432440_1898432397 179464180_1898436227_1898432440_1898432409 179464180_1898436227_1898432440_1898432391 179464180_1898432440_1898436234_1898432440 179464180_1898436234_1898432400_1898436234 179464180_1898436234_1898432400_1898432436 179464180_1898436234_1898432400_1898432437 179464180_1898436234_1898432400_1898432406 179464180_1898436234_1898432400_1898432403 179463099_1898432400_1898415235_1898432400 179463099_1898432400_1898415235_1898415208 179463099_1898432400_1898415235_1898415225 179463099_1898432400_1898415235_1898415256 179463099_1898432400_1898415235_1898415205 179463099_1898432400_1898415235_1898415243 179463099_1898432400_1898415235_1898415232 179463099_1898415235_1898432400_1898415235 179463099_1898415235_1898432400_1898415232 179463099_1898415235_1898432400_1898415243 179463099_1898415235_1898432400_1898415205" />
</routes>