<connections>
	<connection from="179464351_1898434145_1898432407_1898434145" to="179464183_1898432407_1898432393_1898432407" />
	<connection from="179464351_1898434145_1898432407_1898434145" to="179464183_1898432407_1898432439_1898432407" />
	<connection from="179464351_1898434145_1898432407_1898434145" to="179464351_1898432407_1898434145_1898432407" />
	<connection from="179463099_1898435368_3350462677_1898435368" to="179463099_1898435368_3350462677_1898415249" />
	<connection from="179463099_1898435368_3350462677_1898415249" to="179463099_1898435368_3350462677_3424610174" />
	<connection from="179463099_1898435368_3350462677_3424610174" to="179463099_1898435368_3350462677_1898415236" />
	<connection from="179463099_1898435368_3350462677_1898415236" to="179463099_1898435368_3350462677_1898415200" />
	<connection from="179463099_1898435368_3350462677_1898415200" to="179463099_3350462677_1898415231_3350462677" />
	<connection from="179463099_1898435368_3350462677_1898415200" to="328235584_3350462677_3350462676_3350462677" />
	<connection from="179463099_1898435368_3350462677_1898415200" to="179463099_3350462677_1898435368_3350462677" />
	<connection from="328235584_3350462677_3350462676_3350462677" to="328235584_3350462676_1898413440_3350462676" />
	<connection from="328235584_3350462677_3350462676_3350462677" to="328235584_3350462676_3350462677_3350462676" />
	<connection from="328235584_3350462677_3350462676_3350462677" to="329211670_3350462676_3360556319_3350462676" />
	<connection from="179464347_1898434138_1898434144_1898434138" to="179464180_1898434144_1898434142_1898434144" />
	<connection from="179464347_1898434138_1898434144_1898434138" to="179464347_1898434144_1898434138_1898434144" />
	<connection from="179464347_1898434138_1898434144_1898434138" to="179464180_1898434144_1898432434_1898434144" />
	<connection from="179464182_1898434138_1898434145_1898434138" to="179464182_1898434145_1898434138_1898434145" />
	<connection from="179464182_1898434138_1898434145_1898434138" to="179464351_1898434145_1898432407_1898434145" />
	<connection from="179464182_1898434138_1898434145_1898434138" to="179464182_1898434145_1898434139_1898434145" />
	<connection from="179464182_1898434138_1898432408_1898434138" to="146624036_1898432408_1898432434_1898432408" />
	<connection from="179464182_1898434138_1898432408_1898434138" to="146624036_1898432408_1598921736_1898432408" />
	<connection from="179464182_1898434138_1898432408_1898434138" to="179464182_1898432408_1898434138_1898432408" />
	<connection from="146624036_1898432408_1898432434_1898432408" to="179464180_1898432434_1898434144_1898432434" />
	<connection from="146624036_1898432408_1898432434_1898432408" to="146624036_1898432434_1598921766_1898432434" />
	<connection from="146624036_1898432408_1898432434_1898432408" to="146624036_1898432434_1898432408_1898432434" />
	<connection from="179464514_1898436227_1898436233_1898436227" to="179464514_1898436233_1898436227_1898436233" />
	<connection from="179464181_1598921736_1898432439_1598921736" to="179464183_1898432439_1898432447_1898432439" />
	<connection from="179464181_1598921736_1898432439_1598921736" to="179464183_1898432439_1898432407_1898432439" />
	<connection from="179464181_1598921736_1898432439_1598921736" to="179464181_1898432439_1598921736_1898432439" />
	<connection from="179464182_1898432408_1898434138_1898432408" to="179464182_1898434138_1898432408_1898434138" />
	<connection from="179464182_1898432408_1898434138_1898432408" to="179464347_1898434138_1898434144_1898434138" />
	<connection from="179464182_1898432408_1898434138_1898432408" to="179464182_1898434138_1898434145_1898434138" />
	<connection from="179464183_1898432448_1898432393_1898432448" to="179464182_1898432393_1898434139_1898432393" />
	<connection from="179464183_1898432448_1898432393_1898432448" to="179464182_1898432393_1898432438_1898432393" />
	<connection from="179464183_1898432448_1898432393_1898432448" to="179464183_1898432393_1898432448_1898432393" />
	<connection from="179464183_1898432448_1898432393_1898432448" to="179464183_1898432393_1898432407_1898432393" />
	<connection from="179463099_1898432400_1898415235_1898432400" to="179463099_1898432400_1898415235_1898415208" />
	<connection from="179463099_1898432400_1898415235_1898415208" to="179463099_1898432400_1898415235_1898415225" />
	<connection from="179463099_1898432400_1898415235_1898415225" to="179463099_1898432400_1898415235_1898415256" />
	<connection from="179463099_1898432400_1898415235_1898415256" to="179463099_1898432400_1898415235_1898415205" />
	<connection from="179463099_1898432400_1898415235_1898415205" to="179463099_1898432400_1898415235_1898415243" />
	<connection from="179463099_1898432400_1898415235_1898415243" to="179463099_1898432400_1898415235_1898415232" />
	<connection from="179463099_1898432400_1898415235_1898415232" to="179463099_1898415235_1898432400_1898415235" />
	<connection from="536380720_3360556319_1898435362_3360556319" to="179464452_1898435362_1898435368_1898435362" />
	<connection from="536380720_3360556319_1898435362_3360556319" to="536380720_1898435362_3360556319_1898435362" />
	<connection from="146624036_1898432434_1598921766_1898432434" to="146624036_1898432434_1598921766_1598921762" />
	<connection from="146624036_1898432434_1598921766_1598921762" to="146624036_1898432434_1598921766_3355131321" />
	<connection from="146624036_1898432434_1598921766_3355131321" to="146624036_1898432434_1598921766_1598921812" />
	<connection from="146624036_1898432434_1598921766_1598921812" to="146624036_1898432434_1598921766_1598921785" />
	<connection from="146624036_1898432434_1598921766_1598921785" to="146624036_1898432434_1598921766_1598921827" />
	<connection from="146624036_1898432434_1598921766_1598921827" to="146624036_1898432434_1598921766_1598921741" />
	<connection from="146624036_1898432434_1598921766_1598921741" to="146624036_1598921766_1898432434_1598921766" />
	<connection from="179464515_1898436229_1898436228_1898436229" to="179464515_1898436229_1898436228_1898436231" />
	<connection from="179464515_1898436229_1898436228_1898436231" to="179464515_1898436228_1898436229_1898436228" />
	<connection from="179463099_1898435368_1898432400_1898435368" to="179463099_1898435368_1898432400_1898415246" />
	<connection from="179463099_1898435368_1898432400_1898415246" to="179463099_1898435368_1898432400_1898415245" />
	<connection from="179463099_1898435368_1898432400_1898415245" to="179463099_1898435368_1898432400_1898415248" />
	<connection from="179463099_1898435368_1898432400_1898415248" to="179464180_1898432400_1898436234_1898432400" />
	<connection from="179463099_1898435368_1898432400_1898415248" to="179463099_1898432400_1898435368_1898432400" />
	<connection from="179463099_1898435368_1898432400_1898415248" to="179463099_1898432400_1898415235_1898432400" />
	<connection from="179464180_1898432438_1898432448_1898432438" to="179464180_1898432438_1898432448_1898432418" />
	<connection from="179464180_1898432438_1898432448_1898432418" to="179464180_1898432448_1898432438_1898432448" />
	<connection from="179464180_1898432438_1898432448_1898432418" to="179464180_1898432448_1898434142_1898432448" />
	<connection from="179464180_1898432438_1898432448_1898432418" to="179464183_1898432448_1898432393_1898432448" />
	<connection from="179464183_1898432393_1898432448_1898432393" to="179464180_1898432448_1898432438_1898432448" />
	<connection from="179464183_1898432393_1898432448_1898432393" to="179464180_1898432448_1898434142_1898432448" />
	<connection from="179464183_1898432393_1898432448_1898432393" to="179464183_1898432448_1898432393_1898432448" />
	<connection from="146624036_1898432434_1898432408_1898432434" to="146624036_1898432408_1898432434_1898432408" />
	<connection from="146624036_1898432434_1898432408_1898432434" to="146624036_1898432408_1598921736_1898432408" />
	<connection from="146624036_1898432434_1898432408_1898432434" to="179464182_1898432408_1898434138_1898432408" />
	<connection from="179464183_1898432393_1898432407_1898432393" to="179464183_1898432393_1898432407_1898432394" />
	<connection from="179464183_1898432393_1898432407_1898432394" to="179464183_1898432407_1898432393_1898432407" />
	<connection from="179464183_1898432393_1898432407_1898432394" to="179464183_1898432407_1898432439_1898432407" />
	<connection from="179464183_1898432393_1898432407_1898432394" to="179464351_1898432407_1898434145_1898432407" />
	<connection from="179463099_3350462677_1898435368_3350462677" to="179463099_3350462677_1898435368_1898415200" />
	<connection from="179463099_3350462677_1898435368_1898415200" to="179463099_3350462677_1898435368_1898415236" />
	<connection from="179463099_3350462677_1898435368_1898415236" to="179463099_3350462677_1898435368_3424610174" />
	<connection from="179463099_3350462677_1898435368_3424610174" to="179463099_3350462677_1898435368_1898415249" />
	<connection from="179463099_3350462677_1898435368_1898415249" to="179463099_1898435368_3350462677_1898435368" />
	<connection from="179463099_3350462677_1898435368_1898415249" to="179463099_1898435368_1898432400_1898435368" />
	<connection from="179463099_3350462677_1898435368_1898415249" to="179464452_1898435368_1898435362_1898435368" />
	<connection from="179464182_1898432393_1898434139_1898432393" to="179464182_1898434139_1898432393_1898434139" />
	<connection from="179464182_1898432393_1898434139_1898432393" to="179464348_1898434139_1898434142_1898434139" />
	<connection from="179464182_1898432393_1898434139_1898432393" to="179464182_1898434139_1898434145_1898434139" />
	<connection from="179464182_1898434139_1898432393_1898434139" to="179464182_1898432393_1898434139_1898432393" />
	<connection from="179464182_1898434139_1898432393_1898434139" to="179464182_1898432393_1898432438_1898432393" />
	<connection from="179464182_1898434139_1898432393_1898434139" to="179464183_1898432393_1898432448_1898432393" />
	<connection from="179464182_1898434139_1898432393_1898434139" to="179464183_1898432393_1898432407_1898432393" />
	<connection from="179464183_1898432407_1898432439_1898432407" to="179464183_1898432439_1898432447_1898432439" />
	<connection from="179464183_1898432407_1898432439_1898432407" to="179464183_1898432439_1898432407_1898432439" />
	<connection from="179464183_1898432407_1898432439_1898432407" to="179464181_1898432439_1598921736_1898432439" />
	<connection from="179464515_1898432440_1898436229_1898432440" to="179464513_1898436229_1898436234_1898436229" />
	<connection from="179464515_1898432440_1898436229_1898432440" to="179464515_1898436229_1898432440_1898436229" />
	<connection from="179464515_1898432440_1898436229_1898432440" to="179464515_1898436229_1898436228_1898436229" />
	<connection from="179463099_1898415231_3350462677_1898415231" to="179463099_1898415231_3350462677_1898415211" />
	<connection from="179463099_1898415231_3350462677_1898415211" to="179463099_3350462677_1898415231_3350462677" />
	<connection from="179463099_1898415231_3350462677_1898415211" to="328235584_3350462677_3350462676_3350462677" />
	<connection from="179463099_1898415231_3350462677_1898415211" to="179463099_3350462677_1898435368_3350462677" />
	<connection from="179464181_1898432439_1598921736_1898432439" to="146624036_1598921736_1898432447_1598921736" />
	<connection from="179464181_1898432439_1598921736_1898432439" to="179464181_1598921736_1898432439_1598921736" />
	<connection from="179464181_1898432439_1598921736_1898432439" to="146624036_1598921736_1898432408_1598921736" />
	<connection from="179464182_1898432393_1898432438_1898432393" to="179464182_1898432393_1898432438_1898432404" />
	<connection from="179464182_1898432393_1898432438_1898432404" to="179464180_1898432438_1898436227_1898432438" />
	<connection from="179464182_1898432393_1898432438_1898432404" to="179464182_1898432438_1898432393_1898432438" />
	<connection from="179464182_1898432393_1898432438_1898432404" to="179464180_1898432438_1898432448_1898432438" />
	<connection from="179464351_1898432407_1898434145_1898432407" to="179464182_1898434145_1898434138_1898434145" />
	<connection from="179464351_1898432407_1898434145_1898432407" to="179464351_1898434145_1898432407_1898434145" />
	<connection from="179464351_1898432407_1898434145_1898432407" to="179464182_1898434145_1898434139_1898434145" />
	<connection from="179464515_1898436228_1898436229_1898436228" to="179464515_1898436228_1898436229_1898436231" />
	<connection from="179464515_1898436228_1898436229_1898436231" to="179464513_1898436229_1898436234_1898436229" />
	<connection from="179464515_1898436228_1898436229_1898436231" to="179464515_1898436229_1898432440_1898436229" />
	<connection from="179464515_1898436228_1898436229_1898436231" to="179464515_1898436229_1898436228_1898436229" />
	<connection from="179464183_1898432407_1898432393_1898432407" to="179464183_1898432407_1898432393_1898432394" />
	<connection from="179464183_1898432407_1898432393_1898432394" to="179464182_1898432393_1898434139_1898432393" />
	<connection from="179464183_1898432407_1898432393_1898432394" to="179464182_1898432393_1898432438_1898432393" />
	<connection from="179464183_1898432407_1898432393_1898432394" to="179464183_1898432393_1898432448_1898432393" />
	<connection from="179464183_1898432407_1898432393_1898432394" to="179464183_1898432393_1898432407_1898432393" />
	<connection from="146624036_1898432447_213748332_1898432447" to="146624036_1898432447_213748332_1598921792" />
	<connection from="146624036_1898432447_213748332_1598921792" to="146624036_1898432447_213748332_1598921716" />
	<connection from="146624036_1898432447_213748332_1598921716" to="146624036_1898432447_213748332_1898434887" />
	<connection from="146624036_1898432447_213748332_1898434887" to="146624036_1898432447_213748332_1818309383" />
	<connection from="146624036_1898432447_213748332_1818309383" to="146624036_213748332_1898432447_213748332" />
	<connection from="146624036_1598921736_1898432447_1598921736" to="146624036_1898432447_213748332_1898432447" />
	<connection from="146624036_1598921736_1898432447_1598921736" to="146624036_1898432447_1598921736_1898432447" />
	<connection from="146624036_1598921736_1898432447_1598921736" to="179464183_1898432447_1898432439_1898432447" />
	<connection from="179464183_1898432439_1898432447_1898432439" to="146624036_1898432447_213748332_1898432447" />
	<connection from="179464183_1898432439_1898432447_1898432439" to="146624036_1898432447_1598921736_1898432447" />
	<connection from="179464183_1898432439_1898432447_1898432439" to="179464183_1898432447_1898432439_1898432447" />
	<connection from="179464180_1898432448_1898432438_1898432448" to="179464180_1898432448_1898432438_1898432418" />
	<connection from="179464180_1898432448_1898432438_1898432418" to="179464180_1898432438_1898436227_1898432438" />
	<connection from="179464180_1898432448_1898432438_1898432418" to="179464182_1898432438_1898432393_1898432438" />
	<connection from="179464180_1898432448_1898432438_1898432418" to="179464180_1898432438_1898432448_1898432438" />
	<connection from="179464514_1898436233_1898436227_1898436233" to="179464180_1898436227_1898432438_1898436227" />
	<connection from="179464514_1898436233_1898436227_1898436233" to="179464514_1898436227_1898436233_1898436227" />
	<connection from="179464514_1898436233_1898436227_1898436233" to="179464180_1898436227_1898432440_1898436227" />
	<connection from="179464180_1898436227_1898432440_1898436227" to="179464180_1898436227_1898432440_1898432397" />
	<connection from="179464180_1898436227_1898432440_1898432397" to="179464180_1898436227_1898432440_1898432409" />
	<connection from="179464180_1898436227_1898432440_1898432409" to="179464180_1898436227_1898432440_1898432391" />
	<connection from="179464180_1898436227_1898432440_1898432391" to="179464180_1898432440_1898436227_1898432440" />
	<connection from="179464180_1898436227_1898432440_1898432391" to="179464515_1898432440_1898436229_1898432440" />
	<connection from="179464180_1898436227_1898432440_1898432391" to="179464180_1898432440_1898436234_1898432440" />
	<connection from="179464183_1898432439_1898432407_1898432439" to="179464183_1898432407_1898432393_1898432407" />
	<connection from="179464183_1898432439_1898432407_1898432439" to="179464183_1898432407_1898432439_1898432407" />
	<connection from="179464183_1898432439_1898432407_1898432439" to="179464351_1898432407_1898434145_1898432407" />
	<connection from="146624036_1898432408_1598921736_1898432408" to="146624036_1898432408_1598921736_1598921733" />
	<connection from="146624036_1898432408_1598921736_1598921733" to="146624036_1598921736_1898432447_1598921736" />
	<connection from="146624036_1898432408_1598921736_1598921733" to="179464181_1598921736_1898432439_1598921736" />
	<connection from="146624036_1898432408_1598921736_1598921733" to="146624036_1598921736_1898432408_1598921736" />
	<connection from="328235584_1898413440_3350462676_1898413440" to="328235584_1898413440_3350462676_3350462674" />
	<connection from="328235584_1898413440_3350462676_3350462674" to="328235584_1898413440_3350462676_3350462675" />
	<connection from="328235584_1898413440_3350462676_3350462675" to="328235584_3350462676_1898413440_3350462676" />
	<connection from="328235584_1898413440_3350462676_3350462675" to="328235584_3350462676_3350462677_3350462676" />
	<connection from="328235584_1898413440_3350462676_3350462675" to="329211670_3350462676_3360556319_3350462676" />
	<connection from="146624036_213748332_1898432447_213748332" to="146624036_213748332_1898432447_1818309383" />
	<connection from="146624036_213748332_1898432447_1818309383" to="146624036_213748332_1898432447_1898434887" />
	<connection from="146624036_213748332_1898432447_1898434887" to="146624036_213748332_1898432447_1598921716" />
	<connection from="146624036_213748332_1898432447_1598921716" to="146624036_213748332_1898432447_1598921792" />
	<connection from="146624036_213748332_1898432447_1598921792" to="146624036_1898432447_213748332_1898432447" />
	<connection from="146624036_213748332_1898432447_1598921792" to="146624036_1898432447_1598921736_1898432447" />
	<connection from="146624036_213748332_1898432447_1598921792" to="179464183_1898432447_1898432439_1898432447" />
	<connection from="146624036_1598921736_1898432408_1598921736" to="146624036_1598921736_1898432408_1598921733" />
	<connection from="146624036_1598921736_1898432408_1598921733" to="146624036_1898432408_1898432434_1898432408" />
	<connection from="146624036_1598921736_1898432408_1598921733" to="146624036_1898432408_1598921736_1898432408" />
	<connection from="146624036_1598921736_1898432408_1598921733" to="179464182_1898432408_1898434138_1898432408" />
	<connection from="179464348_1898434139_1898434142_1898434139" to="179464180_1898434142_1898434144_1898434142" />
	<connection from="179464348_1898434139_1898434142_1898434139" to="179464348_1898434142_1898434139_1898434142" />
	<connection from="179464348_1898434139_1898434142_1898434139" to="179464180_1898434142_1898432448_1898434142" />
	<connection from="179463099_1898415235_1898432400_1898415235" to="179463099_1898415235_1898432400_1898415232" />
	<connection from="179463099_1898415235_1898432400_1898415232" to="179463099_1898415235_1898432400_1898415243" />
	<connection from="179463099_1898415235_1898432400_1898415243" to="179463099_1898415235_1898432400_1898415205" />
	<connection from="179463099_1898415235_1898432400_1898415205" to="179463099_1898415235_1898432400_1898415256" />
	<connection from="179463099_1898415235_1898432400_1898415256" to="179463099_1898415235_1898432400_1898415225" />
	<connection from="179463099_1898415235_1898432400_1898415225" to="179463099_1898415235_1898432400_1898415208" />
	<connection from="179463099_1898415235_1898432400_1898415208" to="179464180_1898432400_1898436234_1898432400" />
	<connection from="179463099_1898415235_1898432400_1898415208" to="179463099_1898432400_1898435368_1898432400" />
	<connection from="179463099_1898415235_1898432400_1898415208" to="179463099_1898432400_1898415235_1898432400" />
	<connection from="329211670_3360556319_3350462676_3360556319" to="328235584_3350462676_1898413440_3350462676" />
	<connection from="329211670_3360556319_3350462676_3360556319" to="328235584_3350462676_3350462677_3350462676" />
	<connection from="329211670_3360556319_3350462676_3360556319" to="329211670_3350462676_3360556319_3350462676" />
	<connection from="179464180_1898432440_1898436227_1898432440" to="179464180_1898432440_1898436227_1898432391" />
	<connection from="179464180_1898432440_1898436227_1898432391" to="179464180_1898432440_1898436227_1898432409" />
	<connection from="179464180_1898432440_1898436227_1898432409" to="179464180_1898432440_1898436227_1898432397" />
	<connection from="179464180_1898432440_1898436227_1898432397" to="179464180_1898436227_1898432438_1898436227" />
	<connection from="179464180_1898432440_1898436227_1898432397" to="179464514_1898436227_1898436233_1898436227" />
	<connection from="179464180_1898432440_1898436227_1898432397" to="179464180_1898436227_1898432440_1898436227" />
	<connection from="179464452_1898435362_1898435368_1898435362" to="179464452_1898435362_1898435368_1898435364" />
	<connection from="179464452_1898435362_1898435368_1898435364" to="179464452_1898435362_1898435368_1898435366" />
	<connection from="179464452_1898435362_1898435368_1898435366" to="179463099_1898435368_3350462677_1898435368" />
	<connection from="179464452_1898435362_1898435368_1898435366" to="179463099_1898435368_1898432400_1898435368" />
	<connection from="179464452_1898435362_1898435368_1898435366" to="179464452_1898435368_1898435362_1898435368" />
	<connection from="179464180_1898432448_1898434142_1898432448" to="179464180_1898434142_1898434144_1898434142" />
	<connection from="179464180_1898432448_1898434142_1898432448" to="179464348_1898434142_1898434139_1898434142" />
	<connection from="179464180_1898432448_1898434142_1898432448" to="179464180_1898434142_1898432448_1898434142" />
	<connection from="179464180_1898434144_1898434142_1898434144" to="179464180_1898434144_1898434142_1898432427" />
	<connection from="179464180_1898434144_1898434142_1898432427" to="179464180_1898434144_1898434142_1898432421" />
	<connection from="179464180_1898434144_1898434142_1898432421" to="179464180_1898434142_1898434144_1898434142" />
	<connection from="179464180_1898434144_1898434142_1898432421" to="179464348_1898434142_1898434139_1898434142" />
	<connection from="179464180_1898434144_1898434142_1898432421" to="179464180_1898434142_1898432448_1898434142" />
	<connection from="328235584_3350462676_1898413440_3350462676" to="328235584_3350462676_1898413440_3350462675" />
	<connection from="328235584_3350462676_1898413440_3350462675" to="328235584_3350462676_1898413440_3350462674" />
	<connection from="328235584_3350462676_1898413440_3350462674" to="328235584_1898413440_3350462676_1898413440" />
	<connection from="328235584_3350462676_3350462677_3350462676" to="179463099_3350462677_1898415231_3350462677" />
	<connection from="328235584_3350462676_3350462677_3350462676" to="328235584_3350462677_3350462676_3350462677" />
	<connection from="328235584_3350462676_3350462677_3350462676" to="179463099_3350462677_1898435368_3350462677" />
	<connection from="179464180_1898436234_1898432440_1898436234" to="179464180_1898432440_1898436227_1898432440" />
	<connection from="179464180_1898436234_1898432440_1898436234" to="179464515_1898432440_1898436229_1898432440" />
	<connection from="179464180_1898436234_1898432440_1898436234" to="179464180_1898432440_1898436234_1898432440" />
	<connection from="179464180_1898432434_1898434144_1898432434" to="179464180_1898434144_1898434142_1898434144" />
	<connection from="179464180_1898432434_1898434144_1898432434" to="179464347_1898434144_1898434138_1898434144" />
	<connection from="179464180_1898432434_1898434144_1898432434" to="179464180_1898434144_1898432434_1898434144" />
	<connection from="179464183_1898432447_1898432439_1898432447" to="179464183_1898432439_1898432447_1898432439" />
	<connection from="179464183_1898432447_1898432439_1898432447" to="179464183_1898432439_1898432407_1898432439" />
	<connection from="179464183_1898432447_1898432439_1898432447" to="179464181_1898432439_1598921736_1898432439" />
	<connection from="179464180_1898436234_1898432400_1898436234" to="179464180_1898436234_1898432400_1898432436" />
	<connection from="179464180_1898436234_1898432400_1898432436" to="179464180_1898436234_1898432400_1898432437" />
	<connection from="179464180_1898436234_1898432400_1898432437" to="179464180_1898436234_1898432400_1898432406" />
	<connection from="179464180_1898436234_1898432400_1898432406" to="179464180_1898436234_1898432400_1898432403" />
	<connection from="179464180_1898436234_1898432400_1898432403" to="179464180_1898432400_1898436234_1898432400" />
	<connection from="179464180_1898436234_1898432400_1898432403" to="179463099_1898432400_1898435368_1898432400" />
	<connection from="179464180_1898436234_1898432400_1898432403" to="179463099_1898432400_1898415235_1898432400" />
	<connection from="179464182_1898434139_1898434145_1898434139" to="179464182_1898434139_1898434145_1898432445" />
	<connection from="179464182_1898434139_1898434145_1898432445" to="179464182_1898434145_1898434138_1898434145" />
	<connection from="179464182_1898434139_1898434145_1898432445" to="179464351_1898434145_1898432407_1898434145" />
	<connection from="179464182_1898434139_1898434145_1898432445" to="179464182_1898434145_1898434139_1898434145" />
	<connection from="179464513_1898436229_1898436234_1898436229" to="179464513_1898436229_1898436234_1898436232" />
	<connection from="179464513_1898436229_1898436234_1898436232" to="179464513_1898436234_1898436229_1898436234" />
	<connection from="179464513_1898436229_1898436234_1898436232" to="179464180_1898436234_1898432440_1898436234" />
	<connection from="179464513_1898436229_1898436234_1898436232" to="179464180_1898436234_1898432400_1898436234" />
	<connection from="179464180_1898432438_1898436227_1898432438" to="179464180_1898436227_1898432438_1898436227" />
	<connection from="179464180_1898432438_1898436227_1898432438" to="179464514_1898436227_1898436233_1898436227" />
	<connection from="179464180_1898432438_1898436227_1898432438" to="179464180_1898436227_1898432440_1898436227" />
	<connection from="179464348_1898434142_1898434139_1898434142" to="179464182_1898434139_1898432393_1898434139" />
	<connection from="179464348_1898434142_1898434139_1898434142" to="179464348_1898434139_1898434142_1898434139" />
	<connection from="179464348_1898434142_1898434139_1898434142" to="179464182_1898434139_1898434145_1898434139" />
	<connection from="179464513_1898436234_1898436229_1898436234" to="179464513_1898436234_1898436229_1898436232" />
	<connection from="179464513_1898436234_1898436229_1898436232" to="179464513_1898436229_1898436234_1898436229" />
	<connection from="179464513_1898436234_1898436229_1898436232" to="179464515_1898436229_1898432440_1898436229" />
	<connection from="179464513_1898436234_1898436229_1898436232" to="179464515_1898436229_1898436228_1898436229" />
	<connection from="179464182_1898434145_1898434138_1898434145" to="179464182_1898434138_1898432408_1898434138" />
	<connection from="179464182_1898434145_1898434138_1898434145" to="179464347_1898434138_1898434144_1898434138" />
	<connection from="179464182_1898434145_1898434138_1898434145" to="179464182_1898434138_1898434145_1898434138" />
	<connection from="179464182_1898434145_1898434139_1898434145" to="179464182_1898434145_1898434139_1898432445" />
	<connection from="179464182_1898434145_1898434139_1898432445" to="179464182_1898434139_1898432393_1898434139" />
	<connection from="179464182_1898434145_1898434139_1898432445" to="179464348_1898434139_1898434142_1898434139" />
	<connection from="179464182_1898434145_1898434139_1898432445" to="179464182_1898434139_1898434145_1898434139" />
	<connection from="179464515_1898436229_1898432440_1898436229" to="179464180_1898432440_1898436227_1898432440" />
	<connection from="179464515_1898436229_1898432440_1898436229" to="179464515_1898432440_1898436229_1898432440" />
	<connection from="179464515_1898436229_1898432440_1898436229" to="179464180_1898432440_1898436234_1898432440" />
	<connection from="179464182_1898432438_1898432393_1898432438" to="179464182_1898432438_1898432393_1898432404" />
	<connection from="179464182_1898432438_1898432393_1898432404" to="179464182_1898432393_1898434139_1898432393" />
	<connection from="179464182_1898432438_1898432393_1898432404" to="179464182_1898432393_1898432438_1898432393" />
	<connection from="179464182_1898432438_1898432393_1898432404" to="179464183_1898432393_1898432448_1898432393" />
	<connection from="179464182_1898432438_1898432393_1898432404" to="179464183_1898432393_1898432407_1898432393" />
	<connection from="146624036_1598921766_1898432434_1598921766" to="146624036_1598921766_1898432434_1598921741" />
	<connection from="146624036_1598921766_1898432434_1598921741" to="146624036_1598921766_1898432434_1598921827" />
	<connection from="146624036_1598921766_1898432434_1598921827" to="146624036_1598921766_1898432434_1598921785" />
	<connection from="146624036_1598921766_1898432434_1598921785" to="146624036_1598921766_1898432434_1598921812" />
	<connection from="146624036_1598921766_1898432434_1598921812" to="146624036_1598921766_1898432434_3355131321" />
	<connection from="146624036_1598921766_1898432434_3355131321" to="146624036_1598921766_1898432434_1598921762" />
	<connection from="146624036_1598921766_1898432434_1598921762" to="179464180_1898432434_1898434144_1898432434" />
	<connection from="146624036_1598921766_1898432434_1598921762" to="146624036_1898432434_1598921766_1898432434" />
	<connection from="146624036_1598921766_1898432434_1598921762" to="146624036_1898432434_1898432408_1898432434" />
	<connection from="179464347_1898434144_1898434138_1898434144" to="179464182_1898434138_1898432408_1898434138" />