<edges>
	<edge id="179464351_1898434145_1898432407_1898434145" from="1898434145" to="1898432407" numLanes="1" speed="13.89" />
	<edge id="179463099_1898435368_3350462677_1898435368" from="1898435368" to="1898415249" numLanes="1" speed="13.89" />
	<edge id="179463099_1898435368_3350462677_1898415249" from="1898415249" to="3424610174" numLanes="1" speed="13.89" />
	<edge id="179463099_1898435368_3350462677_3424610174" from="3424610174" to="1898415236" numLanes="1" speed="13.89" />
	<edge id="179463099_1898435368_3350462677_1898415236" from="1898415236" to="1898415200" numLanes="1" speed="13.89" />
	<edge id="179463099_1898435368_3350462677_1898415200" from="1898415200" to="3350462677" numLanes="1" speed="13.89" />
	<edge id="328235584_3350462677_3350462676_3350462677" from="3350462677" to="3350462676" numLanes="1" speed="8.33" />
	<edge id="179464347_1898434138_1898434144_1898434138" from="1898434138" to="1898434144" numLanes="1" speed="8.33" />
	<edge id="179464182_1898434138_1898434145_1898434138" from="1898434138" to="1898434145" numLanes="1" speed="8.33" />
	<edge id="179464182_1898434138_1898432408_1898434138" from="1898434138" to="1898432408" numLanes="1" speed="8.33" />
	<edge id="146624036_1898432408_1898432434_1898432408" from="1898432408" to="1898432434" numLanes="1" speed="13.89" />
	<edge id="179464514_1898436227_1898436233_1898436227" from="1898436227" to="1898436233" numLanes="1" speed="13.89" />
	<edge id="179464181_1598921736_1898432439_1598921736" from="1598921736" to="1898432439" numLanes="1" speed="8.33" />
	<edge id="179464182_1898432408_1898434138_1898432408" from="1898432408" to="1898434138" numLanes="1" speed="8.33" />
	<edge id="179464183_1898432448_1898432393_1898432448" from="1898432448" to="1898432393" numLanes="1" speed="13.89" />
	<edge id="179463099_1898432400_1898415235_1898432400" from="1898432400" to="1898415208" numLanes="1" speed="13.89" />
	<edge id="179463099_1898432400_1898415235_1898415208" from="1898415208" to="1898415225" numLanes="1" speed="13.89" />
	<edge id="179463099_1898432400_1898415235_1898415225" from="1898415225" to="1898415256" numLanes="1" speed="13.89" />
	<edge id="179463099_1898432400_1898415235_1898415256" from="1898415256" to="1898415205" numLanes="1" speed="13.89" />
	<edge id="179463099_1898432400_1898415235_1898415205" from="1898415205" to="1898415243" numLanes="1" speed="13.89" />
	<edge id="179463099_1898432400_1898415235_1898415243" from="1898415243" to="1898415232" numLanes="1" speed="13.89" />
	<edge id="179463099_1898432400_1898415235_1898415232" from="1898415232" to="1898415235" numLanes="1" speed="13.89" />
	<edge id="536380720_3360556319_1898435362_3360556319" from="3360556319" to="1898435362" numLanes="1" speed="8.33" />
	<edge id="146624036_1898432434_1598921766_1898432434" from="1898432434" to="1598921762" numLanes="1" speed="13.89" />
	<edge id="146624036_1898432434_1598921766_1598921762" from="1598921762" to="3355131321" numLanes="1" speed="13.89" />
	<edge id="146624036_1898432434_1598921766_3355131321" from="3355131321" to="1598921812" numLanes="1" speed="13.89" />
	<edge id="146624036_1898432434_1598921766_1598921812" from="1598921812" to="1598921785" numLanes="1" speed="13.89" />
	<edge id="146624036_1898432434_1598921766_1598921785" from="1598921785" to="1598921827" numLanes="1" speed="13.89" />
	<edge id="146624036_1898432434_1598921766_1598921827" from="1598921827" to="1598921741" numLanes="1" speed="13.89" />
	<edge id="146624036_1898432434_1598921766_1598921741" from="1598921741" to="1598921766" numLanes="1" speed="13.89" />
	<edge id="179464515_1898436229_1898436228_1898436229" from="1898436229" to="1898436231" numLanes="1" speed="13.89" />
	<edge id="179464515_1898436229_1898436228_1898436231" from="1898436231" to="1898436228" numLanes="1" speed="13.89" />
	<edge id="179463099_1898435368_1898432400_1898435368" from="1898435368" to="1898415246" numLanes="1" speed="13.89" />
	<edge id="179463099_1898435368_1898432400_1898415246" from="1898415246" to="1898415245" numLanes="1" speed="13.89" />
	<edge id="179463099_1898435368_1898432400_1898415245" from="1898415245" to="1898415248" numLanes="1" speed="13.89" />
	<edge id="179463099_1898435368_1898432400_1898415248" from="1898415248" to="1898432400" numLanes="1" speed="13.89" />
	<edge id="179464180_1898432438_1898432448_1898432438" from="1898432438" to="1898432418" numLanes="1" speed="13.89" />
	<edge id="179464180_1898432438_1898432448_1898432418" from="1898432418" to="1898432448" numLanes="1" speed="13.89" />
	<edge id="179464183_1898432393_1898432448_1898432393" from="1898432393" to="1898432448" numLanes="1" speed="13.89" />
	<edge id="146624036_1898432434_1898432408_1898432434" from="1898432434" to="1898432408" numLanes="1" speed="13.89" />
	<edge id="179464183_1898432393_1898432407_1898432393" from="1898432393" to="1898432394" numLanes="1" speed="13.89" />
	<edge id="179464183_1898432393_1898432407_1898432394" from="1898432394" to="1898432407" numLanes="1" speed="13.89" />
	<edge id="179463099_3350462677_1898435368_3350462677" from="3350462677" to="1898415200" numLanes="1" speed="13.89" />
	<edge id="179463099_3350462677_1898435368_1898415200" from="1898415200" to="1898415236" numLanes="1" speed="13.89" />
	<edge id="179463099_3350462677_1898435368_1898415236" from="1898415236" to="3424610174" numLanes="1" speed="13.89" />
	<edge id="179463099_3350462677_1898435368_3424610174" from="3424610174" to="1898415249" numLanes="1" speed="13.89" />
	<edge id="179463099_3350462677_1898435368_1898415249" from="1898415249" to="1898435368" numLanes="1" speed="13.89" />
	<edge id="179464182_1898432393_1898434139_1898432393" from="1898432393" to="1898434139" numLanes="1" speed="8.33" />
	<edge id="179464182_1898434139_1898432393_1898434139" from="1898434139" to="1898432393" numLanes="1" speed="8.33" />
	<edge id="179464183_1898432407_1898432439_1898432407" from="1898432407" to="1898432439" numLanes="1" speed="13.89" />
	<edge id="179464515_1898432440_1898436229_1898432440" from="1898432440" to="1898436229" numLanes="1" speed="13.89" />
	<edge id="179463099_1898415231_3350462677_1898415231" from="1898415231" to="1898415211" numLanes="1" speed="13.89" />
	<edge id="179463099_1898415231_3350462677_1898415211" from="1898415211" to="3350462677" numLanes="1" speed="13.89" />
	<edge id="179464181_1898432439_1598921736_1898432439" from="1898432439" to="1598921736" numLanes="1" speed="8.33" />
	<edge id="179464182_1898432393_1898432438_1898432393" from="1898432393" to="1898432404" numLanes="1" speed="8.33" />
	<edge id="179464182_1898432393_1898432438_1898432404" from="1898432404" to="1898432438" numLanes="1" speed="8.33" />
	<edge id="179464351_1898432407_1898434145_1898432407" from="1898432407" to="1898434145" numLanes="1" speed="13.89" />
	<edge id="179464515_1898436228_1898436229_1898436228" from="1898436228" to="1898436231" numLanes="1" speed="13.89" />
	<edge id="179464515_1898436228_1898436229_1898436231" from="1898436231" to="1898436229" numLanes="1" speed="13.89" />
	<edge id="179464183_1898432407_1898432393_1898432407" from="1898432407" to="1898432394" numLanes="1" speed="13.89" />
	<edge id="179464183_1898432407_1898432393_1898432394" from="1898432394" to="1898432393" numLanes="1" speed="13.89" />
	<edge id="146624036_1898432447_213748332_1898432447" from="1898432447" to="1598921792" numLanes="1" speed="13.89" />
	<edge id="146624036_1898432447_213748332_1598921792" from="1598921792" to="1598921716" numLanes="1" speed="13.89" />
	<edge id="146624036_1898432447_213748332_1598921716" from="1598921716" to="1898434887" numLanes="1" speed="13.89" />
	<edge id="146624036_1898432447_213748332_1898434887" from="1898434887" to="1818309383" numLanes="1" speed="13.89" />
	<edge id="146624036_1898432447_213748332_1818309383" from="1818309383" to="213748332" numLanes="1" speed="13.89" />
	<edge id="146624036_1598921736_1898432447_1598921736" from="1598921736" to="1898432447" numLanes="1" speed="13.89" />
	<edge id="179464183_1898432439_1898432447_1898432439" from="1898432439" to="1898432447" numLanes="1" speed="13.89" />
	<edge id="179464180_1898432448_1898432438_1898432448" from="1898432448" to="1898432418" numLanes="1" speed="13.89" />
	<edge id="179464180_1898432448_1898432438_1898432418" from="1898432418" to="1898432438" numLanes="1" speed="13.89" />
	<edge id="179464514_1898436233_1898436227_1898436233" from="1898436233" to="1898436227" numLanes="1" speed="13.89" />
	<edge id="179464180_1898436227_1898432440_1898436227" from="1898436227" to="1898432397" numLanes="1" speed="13.89" />
	<edge id="179464180_1898436227_1898432440_1898432397" from="1898432397" to="1898432409" numLanes="1" speed="13.89" />
	<edge id="179464180_1898436227_1898432440_1898432409" from="1898432409" to="1898432391" numLanes="1" speed="13.89" />
	<edge id="179464180_1898436227_1898432440_1898432391" from="1898432391" to="1898432440" numLanes="1" speed="13.89" />
	<edge id="179464183_1898432439_1898432407_1898432439" from="1898432439" to="1898432407" numLanes="1" speed="13.89" />
	<edge id="146624036_1898432408_1598921736_1898432408" from="1898432408" to="1598921733" numLanes="1" speed="13.89" />
	<edge id="146624036_1898432408_1598921736_1598921733" from="1598921733" to="1598921736" numLanes="1" speed="13.89" />
	<edge id="328235584_1898413440_3350462676_1898413440" from="1898413440" to="3350462674" numLanes="1" speed="8.33" />
	<edge id="328235584_1898413440_3350462676_3350462674" from="3350462674" to="3350462675" numLanes="1" speed="8.33" />
	<edge id="328235584_1898413440_3350462676_3350462675" from="3350462675" to="3350462676" numLanes="1" speed="8.33" />
	<edge id="146624036_213748332_1898432447_213748332" from="213748332" to="1818309383" numLanes="1" speed="13.89" />
	<edge id="146624036_213748332_1898432447_1818309383" from="1818309383" to="1898434887" numLanes="1" speed="13.89" />
	<edge id="146624036_213748332_1898432447_1898434887" from="1898434887" to="1598921716" numLanes="1" speed="13.89" />
	<edge id="146624036_213748332_1898432447_1598921716" from="1598921716" to="1598921792" numLanes="1" speed="13.89" />
	<edge id="146624036_213748332_1898432447_1598921792" from="1598921792" to="1898432447" numLanes="1" speed="13.89" />
	<edge id="146624036_1598921736_1898432408_1598921736" from="1598921736" to="1598921733" numLanes="1" speed="13.89" />
	<edge id="146624036_1598921736_1898432408_1598921733" from="1598921733" to="1898432408" numLanes="1" speed="13.89" />
	<edge id="179464348_1898434139_1898434142_1898434139" from="1898434139" to="1898434142" numLanes="1" speed="8.33" />
	<edge id="179463099_1898415235_1898432400_1898415235" from="1898415235" to="1898415232" numLanes="1" speed="13.89" />
	<edge id="179463099_1898415235_1898432400_1898415232" from="1898415232" to="1898415243" numLanes="1" speed="13.89" />
	<edge id="179463099_1898415235_1898432400_1898415243" from="1898415243" to="1898415205" numLanes="1" speed="13.89" />
	<edge id="179463099_1898415235_1898432400_1898415205" from="1898415205" to="1898415256" numLanes="1" speed="13.89" />
	<edge id="179463099_1898415235_1898432400_1898415256" from="1898415256" to="1898415225" numLanes="1" speed="13.89" />
	<edge id="179463099_1898415235_1898432400_1898415225" from="1898415225" to="1898415208" numLanes="1" speed="13.89" />
	<edge id="179463099_1898415235_1898432400_1898415208" from="1898415208" to="1898432400" numLanes="1" speed="13.89" />
	<edge id="329211670_3360556319_3350462676_3360556319" from="3360556319" to="3350462676" numLanes="1" speed="8.33" />
	<edge id="179464180_1898432440_1898436227_1898432440" from="1898432440" to="1898432391" numLanes="1" speed="13.89" />
	<edge id="179464180_1898432440_1898436227_1898432391" from="1898432391" to="1898432409" numLanes="1" speed="13.89" />
	<edge id="179464180_1898432440_1898436227_1898432409" from="1898432409" to="1898432397" numLanes="1" speed="13.89" />
	<edge id="179464180_1898432440_1898436227_1898432397" from="1898432397" to="1898436227" numLanes="1" speed="13.89" />
	<edge id="179464452_1898435362_1898435368_1898435362" from="1898435362" to="1898435364" numLanes="1" speed="13.89" />
	<edge id="179464452_1898435362_1898435368_1898435364" from="1898435364" to="1898435366" numLanes="1" speed="13.89" />
	<edge id="179464452_1898435362_1898435368_1898435366" from="1898435366" to="1898435368" numLanes="1" speed="13.89" />
	<edge id="179464180_1898432448_1898434142_1898432448" from="1898432448" to="1898434142" numLanes="1" speed="13.89" />
	<edge id="179464180_1898434144_1898434142_1898434144" from="1898434144" to="1898432427" numLanes="1" speed="13.89" />
	<edge id="179464180_1898434144_1898434142_1898432427" from="1898432427" to="1898432421" numLanes="1" speed="13.89" />
	<edge id="179464180_1898434144_1898434142_1898432421" from="1898432421" to="1898434142" numLanes="1" speed="13.89" />
	<edge id="328235584_3350462676_1898413440_3350462676" from="3350462676" to="3350462675" numLanes="1" speed="8.33" />
	<edge id="328235584_3350462676_1898413440_3350462675" from="3350462675" to="3350462674" numLanes="1" speed="8.33" />
	<edge id="328235584_3350462676_1898413440_3350462674" from="3350462674" to="1898413440" numLanes="1" speed="8.33" />
	<edge id="328235584_3350462676_3350462677_3350462676" from="3350462676" to="3350462677" numLanes="1" speed="8.33" />
	<edge id="179464180_1898436234_1898432440_1898436234" from="1898436234" to="1898432440" numLanes="1" speed="13.89" />
	<edge id="179464180_1898432434_1898434144_1898432434" from="1898432434" to="1898434144" numLanes="1" speed="13.89" />
	<edge id="179464183_1898432447_1898432439_1898432447" from="1898432447" to="1898432439" numLanes="1" speed="13.89" />
	<edge id="179464180_1898436234_1898432400_1898436234" from="1898436234" to="1898432436" numLanes="1" speed="13.89" />
	<edge id="179464180_1898436234_1898432400_1898432436" from="1898432436" to="1898432437" numLanes="1" speed="13.89" />
	<edge id="179464180_1898436234_1898432400_1898432437" from="1898432437" to="1898432406" numLanes="1" speed="13.89" />
	<edge id="179464180_1898436234_1898432400_1898432406" from="1898432406" to="1898432403" numLanes="1" speed="13.89" />
	<edge id="179464180_1898436234_1898432400_1898432403" from="1898432403" to="1898432400" numLanes="1" speed="13.89" />
	<edge id="179464182_1898434139_1898434145_1898434139" from="1898434139" to="1898432445" numLanes="1" speed="8.33" />
	<edge id="179464182_1898434139_1898434145_1898432445" from="1898432445" to="1898434145" numLanes="1" speed="8.33" />
	<edge id="179464513_1898436229_1898436234_1898436229" from="1898436229" to="1898436232" numLanes="1" speed="8.33" />
	<edge id="179464513_1898436229_1898436234_1898436232" from="1898436232" to="1898436234" numLanes="1" speed="8.33" />
	<edge id="179464180_1898432438_1898436227_1898432438" from="1898432438" to="1898436227" numLanes="1" speed="13.89" />
	<edge id="179464348_1898434142_1898434139_1898434142" from="1898434142" to="1898434139" numLanes="1" speed="8.33" />
	<edge id="179464513_1898436234_1898436229_1898436234" from="1898436234" to="1898436232" numLanes="1" speed="8.33" />
	<edge id="179464513_1898436234_1898436229_1898436232" from="1898436232" to="1898436229" numLanes="1" speed="8.33" />
	<edge id="179464182_1898434145_1898434138_1898434145" from="1898434145" to="1898434138" numLanes="1" speed="8.33" />
	<edge id="179464182_1898434145_1898434139_1898434145" from="1898434145" to="1898432445" numLanes="1" speed="8.33" />
	<edge id="179464182_1898434145_1898434139_1898432445" from="1898432445" to="1898434139" numLanes="1" speed="8.33" />
	<edge id="179464515_1898436229_1898432440_1898436229" from="1898436229" to="1898432440" numLanes="1" speed="13.89" />
	<edge id="179464182_1898432438_1898432393_1898432438" from="1898432438" to="1898432404" numLanes="1" speed="8.33" />
	<edge id="179464182_1898432438_1898432393_1898432404" from="1898432404" to="1898432393" numLanes="1" speed="8.33" />
	<edge id="146624036_1598921766_1898432434_1598921766" from="1598921766" to="1598921741" numLanes="1" speed="13.89" />
	<edge id="146624036_1598921766_1898432434_1598921741" from="1598921741" to="1598921827" numLanes="1" speed="13.89" />
	<edge id="146624036_1598921766_1898432434_1598921827" from="1598921827" to="1598921785" numLanes="1" speed="13.89" />
	<edge id="146624036_1598921766_1898432434_1598921785" from="1598921785" to="1598921812" numLanes="1" speed="13.89" />
	<edge id="146624036_1598921766_1898432434_1598921812" from="1598921812" to="3355131321" numLanes="1" speed="13.89" />
	<edge id="146624036_1598921766_1898432434_3355131321" from="3355131321" to="1598921762" numLanes="1" speed="13.89" />
	<edge id="146624036_1598921766_1898432434_1598921762" from="1598921762" to="1898432434" numLanes="1" speed="13.89" />
	<edge id="179464347_1898434144_1898434138_1898434144" from="1898434144" to="1898434138" numLanes="1" speed="8.33" />
	<edge id="179464180_1898434142_1898432448_1898434142" from="1898434142" to="1898432448" numLanes="1" speed="13.89" />
	<edge id="179464180_1898434144_1898432434_1898434144" from="1898434144" to="1898432434" numLanes="1" speed="13.89" />
	<edge id="179464180_1898434142_1898434144_1898434142" from="1898434142" to="1898432421" numLanes="1" speed="13.89" />
	<edge id="179464180_1898434142_1898434144_1898432421" from="1898432421" to="1898432427" numLanes="1" speed="13.89" />
	<edge id="179464180_1898434142_1898434144_1898432427" from="1898432427" to="1898434144" numLanes="1" speed="13.89" />
	<edge id="179464180_1898436227_1898432438_1898436227" from="1898436227" to="1898432438" numLanes="1" speed="13.89" />
	<edge id="179463099_3350462677_1898415231_3350462677" from="3350462677" to="1898415211" numLanes="1" speed="13.89" />
	<edge id="179463099_3350462677_1898415231_1898415211" from="1898415211" to="1898415231" numLanes="1" speed="13.89" />
	<edge id="179464180_1898432400_1898436234_1898432400" from="1898432400" to="1898432403" numLanes="1" speed="13.89" />
	<edge id="179464180_1898432400_1898436234_1898432403" from="1898432403" to="1898432406" numLanes="1" speed="13.89" />
	<edge id="179464180_1898432400_1898436234_1898432406" from="1898432406" to="1898432437" numLanes="1" speed="13.89" />
	<edge id="179464180_1898432400_1898436234_1898432437" from="1898432437" to="1898432436" numLanes="1" speed="13.89" />
	<edge id="179464180_1898432400_1898436234_1898432436" from="1898432436" to="1898436234" numLanes="1" speed="13.89" />
	<edge id="179464180_1898432440_1898436234_1898432440" from="1898432440" to="1898436234" numLanes="1" speed="13.89" />
	<edge id="536380720_1898435362_3360556319_1898435362" from="1898435362" to="3360556319" numLanes="1" speed="8.33" />
	<edge id="146624036_1898432447_1598921736_1898432447" from="1898432447" to="1598921736" numLanes="1" speed="13.89" />
	<edge id="179463099_1898432400_1898435368_1898432400" from="1898432400" to="1898415248" numLanes="1" speed="13.89" />
	<edge id="179463099_1898432400_1898435368_1898415248" from="1898415248" to="1898415245" numLanes="1" speed="13.89" />
	<edge id="179463099_1898432400_1898435368_1898415245" from="1898415245" to="1898415246" numLanes="1" speed="13.89" />
	<edge id="179463099_1898432400_1898435368_1898415246" from="1898415246" to="1898435368" numLanes="1" speed="13.89" />
	<edge id="329211670_3350462676_3360556319_3350462676" from="3350462676" to="3360556319" numLanes="1" speed="8.33" />
	<edge id="179464452_1898435368_1898435362_1898435368" from="1898435368" to="1898435366" numLanes="1" speed="13.89" />
	<edge id="179464452_1898435368_1898435362_1898435366" from="1898435366" to="1898435364" numLanes="1" speed="13.89" />
	<edge id="179464452_1898435368_1898435362_1898435364" from="1898435364" to="1898435362" numLanes="1" speed="13.89" />
</edges>
