<nodes>
	<node id="1898432434" x="550437.3615" y="4597785.3317" z="0.0000" type="priority" />
	<node id="1898434139" x="550360.0892" y="4597755.5694" z="0.0000" type="priority" />
	<node id="1898432437" x="550186.5076" y="4597729.0784" z="0.0000" type="priority" />
	<node id="1898432436" x="550211.5608" y="4597730.3631" z="0.0000" type="priority" />
	<node id="1898432439" x="550397.7209" y="4597924.2810" z="0.0000" type="priority" />
	<node id="1898432438" x="550309.5340" y="4597721.6977" z="0.0000" type="priority" />
	<node id="3350462675" x="550139.2110" y="4597909.0775" z="0.0000" type="priority" />
	<node id="3350462674" x="550176.1359" y="4597941.4431" z="0.0000" type="priority" />
	<node id="1898436234" x="550218.3354" y="4597729.1557" z="0.0000" type="priority" />
	<node id="1898432394" x="550269.5557" y="4597841.1825" z="0.0000" type="priority" />
	<node id="1898436235" x="550262.6979" y="4597777.7611" z="0.0000" type="priority" />
	<node id="1898432393" x="550334.7912" y="4597740.3599" z="0.0000" type="priority" />
	<node id="1898436232" x="550219.8040" y="4597735.1058" z="0.0000" type="priority" />
	<node id="1898436233" x="550247.3700" y="4597768.4835" z="0.0000" type="priority" />
	<node id="3355131321" x="550443.4149" y="4597708.3331" z="0.0000" type="priority" />
	<node id="1898432397" x="550273.2103" y="4597714.2943" z="0.0000" type="priority" />
	<node id="1898436236" x="550237.7187" y="4597816.1685" z="0.0000" type="priority" />
	<node id="1898415211" x="550074.7861" y="4597898.6151" z="0.0000" type="priority" />
	<node id="1598921792" x="550421.6059" y="4597961.2864" z="0.0000" type="priority" />
	<node id="1898434138" x="550418.6782" y="4597791.8181" z="0.0000" type="priority" />
	<node id="1898415256" x="550135.4259" y="4597705.9849" z="0.0000" type="priority" />
	<node id="1598921827" x="550453.4316" y="4597607.4696" z="0.0000" type="priority" />
	<node id="1898436229" x="550222.8717" y="4597740.2455" z="0.0000" type="priority" />
	<node id="1898434887" x="550413.6002" y="4597987.0551" z="0.0000" type="priority" />
	<node id="1898432427" x="550402.4334" y="4597763.3596" z="0.0000" type="priority" />
	<node id="1598921762" x="550445.0236" y="4597751.4669" z="0.0000" type="priority" />
	<node id="1898436227" x="550278.9254" y="4597715.4666" z="0.0000" type="priority" />
	<node id="1898436228" x="550189.6784" y="4597787.7332" z="0.0000" type="priority" />
	<node id="1898415225" x="550146.0419" y="4597723.4453" z="0.0000" type="priority" />
	<node id="1898413440" x="550183.0011" y="4597943.9557" z="0.0000" type="priority" />
	<node id="1898432421" x="550376.4982" y="4597746.2358" z="0.0000" type="priority" />
	<node id="1898415231" x="550061.7159" y="4597945.0553" z="0.0000" type="priority" />
	<node id="1898415232" x="550098.3781" y="4597627.4763" z="0.0000" type="priority" />
	<node id="1598921716" x="550420.6125" y="4597974.4916" z="0.0000" type="priority" />
	<node id="1898436230" x="550222.8896" y="4597807.1387" z="0.0000" type="priority" />
	<node id="1898436231" x="550202.3004" y="4597774.6645" z="0.0000" type="priority" />
	<node id="1898432391" x="550247.4524" y="4597718.3559" z="0.0000" type="priority" />
	<node id="3350462677" x="550079.5385" y="4597879.8293" z="0.0000" type="priority" />
	<node id="3350462676" x="550132.5947" y="4597894.7646" z="0.0000" type="priority" />
	<node id="3360556319" x="550137.7271" y="4597889.7265" z="0.0000" type="priority" />
	<node id="1818309383" x="550407.8891" y="4597997.2850" z="0.0000" type="priority" />
	<node id="1898432418" x="550326.7535" y="4597722.9282" z="0.0000" type="priority" />
	<node id="1898435366" x="550189.3969" y="4597846.1420" z="0.0000" type="priority" />
	<node id="3424610174" x="550113.0055" y="4597814.4123" z="0.0000" type="priority" />
	<node id="1898435364" x="550190.8029" y="4597851.4921" z="0.0000" type="priority" />
	<node id="1898415235" x="550073.6799" y="4597557.0143" z="0.0000" type="priority" />
	<node id="1898415236" x="550097.1404" y="4597836.7958" z="0.0000" type="priority" />
	<node id="1898435368" x="550129.8344" y="4597791.4248" z="0.0000" type="priority" />
	<node id="1898415243" x="550109.3316" y="4597661.2155" z="0.0000" type="priority" />
	<node id="1598921766" x="550426.8281" y="4597512.8670" z="0.0000" type="priority" />
	<node id="1898432445" x="550385.8190" y="4597771.0375" z="0.0000" type="priority" />
	<node id="1898432448" x="550343.2139" y="4597727.7506" z="0.0000" type="priority" />
	<node id="1898432404" x="550318.7627" y="4597728.6569" z="0.0000" type="priority" />
	<node id="1898432447" x="550418.5750" y="4597937.7832" z="0.0000" type="priority" />
	<node id="1898432403" x="550157.3583" y="4597737.3468" z="0.0000" type="priority" />
	<node id="1898432406" x="550168.7156" y="4597730.9752" z="0.0000" type="priority" />
	<node id="1898415208" x="550150.6395" y="4597737.7441" z="0.0000" type="priority" />
	<node id="1898432408" x="550434.7708" y="4597802.6558" z="0.0000" type="priority" />
	<node id="1898432407" x="550373.8912" y="4597909.1703" z="0.0000" type="priority" />
	<node id="1898434142" x="550369.2263" y="4597742.1991" z="0.0000" type="priority" />
	<node id="1598921741" x="550436.3163" y="4597561.4739" z="0.0000" type="priority" />
	<node id="1898432440" x="550230.8319" y="4597726.9334" z="0.0000" type="priority" />
	<node id="1898415248" x="550150.5371" y="4597752.4544" z="0.0000" type="priority" />
	<node id="1598921785" x="550454.0796" y="4597620.9749" z="0.0000" type="priority" />
	<node id="1898434145" x="550401.9579" y="4597781.2426" z="0.0000" type="priority" />
	<node id="1898415205" x="550119.9198" y="4597682.6837" z="0.0000" type="priority" />
	<node id="1898415249" x="550123.7059" y="4597799.3205" z="0.0000" type="priority" />
	<node id="1898434144" x="550428.3392" y="4597778.6958" z="0.0000" type="priority" />
	<node id="1898415246" x="550137.1331" y="4597782.0161" z="0.0000" type="priority" />
	<node id="213748332" x="550355.2123" y="4598060.7790" z="0.0000" type="priority" />
	<node id="1898415200" x="550084.9088" y="4597858.5607" z="0.0000" type="priority" />
	<node id="1898432400" x="550150.6022" y="4597743.1064" z="0.0000" type="priority" />
	<node id="1898415245" x="550147.7552" y="4597767.3791" z="0.0000" type="priority" />
	<node id="1598921736" x="550414.3964" y="4597905.4232" z="0.0000" type="priority" />
	<node id="1598921812" x="550443.9305" y="4597687.1197" z="0.0000" type="priority" />
	<node id="1898435362" x="550145.6027" y="4597894.5220" z="0.0000" type="priority" />
	<node id="1598921733" x="550413.6076" y="4597890.5736" z="0.0000" type="priority" />
	<node id="1898432409" x="550262.6010" y="4597712.6770" z="0.0000" type="priority" />
</nodes>
