<?xml version="1.0" encoding="UTF-8"?>

<!-- generated on Tue Nov 26 00:01:15 2019 by Eclipse SUMO netconvert Version 1.2.0
<configuration xmlns:xsi="http://www.w3.org/2001/XMLSchema-instance" xsi:noNamespaceSchemaLocation="http://sumo.dlr.de/xsd/netconvertConfiguration.xsd">

    <input>
        <node-files value="/home/vsimrti/scenarios/ids/sumo/gualtar3/gualtar3.nod.xml"/>
        <edge-files value="/home/vsimrti/scenarios/ids/sumo/gualtar3/gualtar3.edg.xml"/>
        <connection-files value="/home/vsimrti/scenarios/ids/sumo/gualtar3/gualtar3.con.xml"/>
    </input>

    <output>
        <output-file value="/home/vsimrti/scenarios/ids/sumo/gualtar3/gualtar3.net.xml"/>
    </output>

</configuration>
-->

<net version="1.1" junctionCornerDetail="5" limitTurnSpeed="5.50" xmlns:xsi="http://www.w3.org/2001/XMLSchema-instance" xsi:noNamespaceSchemaLocation="http://sumo.dlr.de/xsd/net_file.xsd">

    <location netOffset="-550061.72,-4597512.87" convBoundary="0.00,0.00,392.36,547.91" origBoundary="550061.72,4597512.87,550454.08,4598060.78" projParameter="!"/>

    <edge id=":1598921716_0" function="internal">
        <lane id=":1598921716_0_0" index="0" speed="8.45" length="2.10" shape="360.55,461.04 360.49,461.66 360.41,462.08 360.24,462.48 359.95,463.02"/>
    </edge>
    <edge id=":1598921716_1" function="internal">
        <lane id=":1598921716_1_0" index="0" speed="13.89" length="0.70" shape="357.16,461.46 357.25,461.28 357.31,461.15 357.34,461.01 357.35,460.80"/>
    </edge>
    <edge id=":1598921733_0" function="internal">
        <lane id=":1598921733_0_0" index="0" speed="13.89" length="1.39" shape="350.32,378.26 350.30,377.84 350.31,377.56 350.35,377.28 350.45,376.88"/>
    </edge>
    <edge id=":1598921733_1" function="internal">
        <lane id=":1598921733_1_0" index="0" speed="13.89" length="0.46" shape="353.56,377.63 353.53,377.76 353.51,377.86 353.51,377.95 353.51,378.09"/>
    </edge>
    <edge id=":1598921736_0" function="internal">
        <lane id=":1598921736_0_0" index="0" speed="5.51" length="9.56" shape="352.51,403.72 351.78,400.81 350.54,399.53 348.80,399.89 346.56,401.89"/>
    </edge>
    <edge id=":1598921736_1" function="internal">
        <lane id=":1598921736_1_0" index="0" speed="13.89" length="16.47" shape="352.51,403.72 350.80,387.34"/>
    </edge>
    <edge id=":1598921736_2" function="internal">
        <lane id=":1598921736_2_0" index="0" speed="3.65" length="2.34" shape="352.51,403.72 353.15,402.42 353.89,401.93"/>
    </edge>
    <edge id=":1598921736_9" function="internal">
        <lane id=":1598921736_9_0" index="0" speed="3.65" length="2.34" shape="353.89,401.93 354.74,402.22 355.68,403.31"/>
    </edge>
    <edge id=":1598921736_3" function="internal">
        <lane id=":1598921736_3_0" index="0" speed="13.89" length="16.23" shape="354.00,387.17 355.68,403.31"/>
    </edge>
    <edge id=":1598921736_4" function="internal">
        <lane id=":1598921736_4_0" index="0" speed="11.11" length="5.14" shape="354.00,387.17 353.41,391.05 352.91,392.15"/>
    </edge>
    <edge id=":1598921736_5" function="internal">
        <lane id=":1598921736_5_0" index="0" speed="3.65" length="2.34" shape="354.00,387.17 353.26,388.41 352.48,388.85"/>
    </edge>
    <edge id=":1598921736_10" function="internal">
        <lane id=":1598921736_10_0" index="0" speed="11.11" length="11.69" shape="352.91,392.15 351.62,395.00 349.16,398.71 346.56,401.89"/>
    </edge>
    <edge id=":1598921736_11" function="internal">
        <lane id=":1598921736_11_0" index="0" speed="3.65" length="2.34" shape="352.48,388.85 351.66,388.49 350.80,387.34"/>
    </edge>
    <edge id=":1598921736_6" function="internal">
        <lane id=":1598921736_6_0" index="0" speed="11.11" length="14.47" shape="344.16,399.77 346.64,396.95 348.82,394.02 350.34,390.86 350.80,387.34"/>
    </edge>
    <edge id=":1598921736_7" function="internal">
        <lane id=":1598921736_7_0" index="0" speed="7.39" length="18.51" shape="344.16,399.77 348.50,395.90 351.87,395.20 354.26,397.67 355.68,403.31"/>
    </edge>
    <edge id=":1598921736_8" function="internal">
        <lane id=":1598921736_8_0" index="0" speed="3.65" length="4.67" shape="344.16,399.77 345.56,399.40 346.42,399.63 346.76,400.46 346.56,401.89"/>
    </edge>
    <edge id=":1598921741_0" function="internal">
        <lane id=":1598921741_0_0" index="0" speed="13.89" length="0.79" shape="373.19,49.41 373.11,49.19 373.06,49.04 373.03,48.88 372.98,48.66"/>
    </edge>
    <edge id=":1598921741_1" function="internal">
        <lane id=":1598921741_1_0" index="0" speed="13.89" length="0.26" shape="376.12,48.04 376.14,48.12 376.15,48.17 376.16,48.22 376.19,48.29"/>
    </edge>
    <edge id=":1598921762_0" function="internal">
        <lane id=":1598921762_0_0" index="0" speed="13.89" length="1.25" shape="384.89,238.12 384.90,238.49 384.89,238.75 384.86,239.00 384.78,239.36"/>
    </edge>
    <edge id=":1598921762_1" function="internal">
        <lane id=":1598921762_1_0" index="0" speed="13.89" length="0.42" shape="381.65,238.65 381.68,238.53 381.69,238.45 381.70,238.37 381.69,238.24"/>
    </edge>
    <edge id=":1598921766_0" function="internal">
        <lane id=":1598921766_0_0" index="0" speed="3.65" length="4.67" shape="363.54,0.31 364.10,-1.02 364.81,-1.57 365.67,-1.33 366.68,-0.31"/>
    </edge>
    <edge id=":1598921785_0" function="internal">
        <lane id=":1598921785_0_0" index="0" speed="13.89" length="0.96" shape="393.95,107.71 393.96,108.00 393.96,108.19 393.94,108.39 393.90,108.67"/>
    </edge>
    <edge id=":1598921785_1" function="internal">
        <lane id=":1598921785_1_0" index="0" speed="13.89" length="0.32" shape="390.73,108.18 390.75,108.09 390.75,108.02 390.75,107.96 390.75,107.86"/>
    </edge>
    <edge id=":1598921792_0" function="internal">
        <lane id=":1598921792_0_0" index="0" speed="13.89" length="0.98" shape="361.44,447.89 361.47,448.18 361.49,448.38 361.48,448.58 361.46,448.86"/>
    </edge>
    <edge id=":1598921792_1" function="internal">
        <lane id=":1598921792_1_0" index="0" speed="13.89" length="0.33" shape="358.27,448.62 358.28,448.53 358.28,448.46 358.27,448.40 358.26,448.30"/>
    </edge>
    <edge id=":1598921812_0" function="internal">
        <lane id=":1598921812_0_0" index="0" speed="13.89" length="0.20" shape="383.83,174.29 383.82,174.35 383.81,174.39 383.81,174.44 383.81,174.50"/>
    </edge>
    <edge id=":1598921812_1" function="internal">
        <lane id=":1598921812_1_0" index="0" speed="13.89" length="0.61" shape="380.61,174.42 380.62,174.24 380.62,174.11 380.64,173.99 380.66,173.81"/>
    </edge>
    <edge id=":1598921827_0" function="internal">
        <lane id=":1598921827_0_0" index="0" speed="13.89" length="0.49" shape="390.14,95.18 390.13,95.03 390.12,94.93 390.09,94.83 390.04,94.69"/>
    </edge>
    <edge id=":1598921827_1" function="internal">
        <lane id=":1598921827_1_0" index="0" speed="13.42" length="1.48" shape="393.04,93.58 393.19,93.99 393.27,94.28 393.31,94.58 393.34,95.02"/>
    </edge>
    <edge id=":1818309383_0" function="internal">
        <lane id=":1818309383_0_0" index="0" speed="13.89" length="0.88" shape="347.71,484.94 347.59,485.17 347.49,485.32 347.38,485.46 347.22,485.67"/>
    </edge>
    <edge id=":1818309383_1" function="internal">
        <lane id=":1818309383_1_0" index="0" speed="13.89" length="0.29" shape="344.75,483.62 344.81,483.56 344.85,483.51 344.88,483.46 344.92,483.38"/>
    </edge>
    <edge id=":1898413440_0" function="internal">
        <lane id=":1898413440_0_0" index="0" speed="3.65" length="4.67" shape="121.84,429.59 122.69,430.75 122.79,431.64 122.14,432.25 120.74,432.59"/>
    </edge>
    <edge id=":1898415200_0" function="internal">
        <lane id=":1898415200_0_0" index="0" speed="13.89" length="0.42" shape="24.80,346.11 24.74,346.22 24.70,346.29 24.67,346.38 24.64,346.50"/>
    </edge>
    <edge id=":1898415200_1" function="internal">
        <lane id=":1898415200_1_0" index="0" speed="13.89" length="1.27" shape="21.54,345.71 21.63,345.35 21.71,345.10 21.82,344.87 22.01,344.54"/>
    </edge>
    <edge id=":1898415205_0" function="internal">
        <lane id=":1898415205_0_0" index="0" speed="13.89" length="0.62" shape="56.99,170.88 56.89,170.72 56.82,170.61 56.76,170.50 56.68,170.34"/>
    </edge>
    <edge id=":1898415205_1" function="internal">
        <lane id=":1898415205_1_0" index="0" speed="13.89" length="0.21" shape="59.55,168.92 59.57,168.98 59.59,169.02 59.62,169.05 59.65,169.10"/>
    </edge>
    <edge id=":1898415208_0" function="internal">
        <lane id=":1898415208_0_0" index="0" speed="12.42" length="1.53" shape="90.29,223.90 90.42,224.33 90.49,224.64 90.52,224.95 90.52,225.40"/>
    </edge>
    <edge id=":1898415208_1" function="internal">
        <lane id=":1898415208_1_0" index="0" speed="13.89" length="0.51" shape="87.32,225.38 87.32,225.23 87.31,225.12 87.29,225.02 87.24,224.88"/>
    </edge>
    <edge id=":1898415211_0" function="internal">
        <lane id=":1898415211_0_0" index="0" speed="13.89" length="0.31" shape="14.65,386.01 14.57,386.31"/>
    </edge>
    <edge id=":1898415211_1" function="internal">
        <lane id=":1898415211_1_0" index="0" speed="13.89" length="0.22" shape="11.49,385.44 11.55,385.23"/>
    </edge>
    <edge id=":1898415225_0" function="internal">
        <lane id=":1898415225_0_0" index="0" speed="13.89" length="0.38" shape="82.92,211.43 82.88,211.32 82.86,211.25 82.82,211.18 82.76,211.09"/>
    </edge>
    <edge id=":1898415225_1" function="internal">
        <lane id=":1898415225_1_0" index="0" speed="13.89" length="1.13" shape="85.50,209.42 85.67,209.71 85.78,209.92 85.86,210.13 85.96,210.45"/>
    </edge>
    <edge id=":1898415231_0" function="internal">
        <lane id=":1898415231_0_0" index="0" speed="3.65" length="4.67" shape="1.54,432.62 0.44,433.56 -0.43,433.73 -1.10,433.13 -1.54,431.75"/>
    </edge>
    <edge id=":1898415232_0" function="internal">
        <lane id=":1898415232_0_0" index="0" speed="13.89" length="0.24" shape="35.18,115.23 35.11,115.01"/>
    </edge>
    <edge id=":1898415232_1" function="internal">
        <lane id=":1898415232_1_0" index="0" speed="13.89" length="0.31" shape="38.13,113.95 38.23,114.25"/>
    </edge>
    <edge id=":1898415235_0" function="internal">
        <lane id=":1898415235_0_0" index="0" speed="3.65" length="4.67" shape="10.45,44.68 10.81,43.28 11.43,42.64 12.32,42.75 13.47,43.62"/>
    </edge>
    <edge id=":1898415236_0" function="internal">
        <lane id=":1898415236_0_0" index="0" speed="13.89" length="0.17" shape="36.83,324.72 36.80,324.76 36.78,324.79 36.76,324.82 36.74,324.86"/>
    </edge>
    <edge id=":1898415236_1" function="internal">
        <lane id=":1898415236_1_0" index="0" speed="13.89" length="0.50" shape="33.95,323.29 34.02,323.16 34.07,323.07 34.13,322.99 34.22,322.87"/>
    </edge>
    <edge id=":1898415243_0" function="internal">
        <lane id=":1898415243_0_0" index="0" speed="13.89" length="0.69" shape="46.28,149.26 46.19,149.08 46.14,148.95 46.09,148.82 46.02,148.62"/>
    </edge>
    <edge id=":1898415243_1" function="internal">
        <lane id=":1898415243_1_0" index="0" speed="13.89" length="0.23" shape="49.07,147.63 49.09,147.70 49.10,147.74 49.12,147.79 49.15,147.85"/>
    </edge>
    <edge id=":1898415245_0" function="internal">
        <lane id=":1898415245_0_0" index="0" speed="8.32" length="2.14" shape="87.74,254.10 87.62,254.72 87.49,255.13 87.28,255.52 86.91,256.04"/>
    </edge>
    <edge id=":1898415245_1" function="internal">
        <lane id=":1898415245_1_0" index="0" speed="13.89" length="0.71" shape="84.32,254.16 84.44,253.98 84.51,253.86 84.56,253.72 84.60,253.51"/>
    </edge>
    <edge id=":1898415246_0" function="internal">
        <lane id=":1898415246_0_0" index="0" speed="13.89" length="0.30" shape="76.79,269.99 76.61,270.23"/>
    </edge>
    <edge id=":1898415246_1" function="internal">
        <lane id=":1898415246_1_0" index="0" speed="13.89" length="0.20" shape="74.08,268.27 74.20,268.11"/>
    </edge>
    <edge id=":1898415248_0" function="internal">
        <lane id=":1898415248_0_0" index="0" speed="13.89" length="0.85" shape="90.42,239.31 90.42,239.57 90.41,239.74 90.39,239.91 90.34,240.16"/>
    </edge>
    <edge id=":1898415248_1" function="internal">
        <lane id=":1898415248_1_0" index="0" speed="13.89" length="0.28" shape="87.20,239.57 87.21,239.49 87.22,239.43 87.22,239.38 87.22,239.29"/>
    </edge>
    <edge id=":1898415249_0" function="internal">
        <lane id=":1898415249_0_0" index="0" speed="13.89" length="0.14" shape="63.32,287.35 63.24,287.46"/>
    </edge>
    <edge id=":1898415249_1" function="internal">
        <lane id=":1898415249_1_0" index="0" speed="13.89" length="0.28" shape="60.63,285.61 60.79,285.39"/>
    </edge>
    <edge id=":1898415256_0" function="internal">
        <lane id=":1898415256_0_0" index="0" speed="13.89" length="0.15" shape="72.40,194.04 72.32,193.91"/>
    </edge>
    <edge id=":1898415256_1" function="internal">
        <lane id=":1898415256_1_0" index="0" speed="13.89" length="0.28" shape="74.98,192.14 75.13,192.38"/>
    </edge>
    <edge id=":1898432391_0" function="internal">
        <lane id=":1898432391_0_0" index="0" speed="13.89" length="0.19" shape="186.47,206.92 186.42,206.94 186.39,206.96 186.35,206.97 186.30,207.00"/>
    </edge>
    <edge id=":1898432391_1" function="internal">
        <lane id=":1898432391_1_0" index="0" speed="13.89" length="0.57" shape="184.84,204.15 184.98,204.08 185.09,204.03 185.19,203.98 185.35,203.92"/>
    </edge>
    <edge id=":1898432393_0" function="internal">
        <lane id=":1898432393_0_0" index="0" speed="6.65" length="9.24" shape="278.56,232.65 276.19,231.64 274.07,231.57 272.19,232.47 270.56,234.32"/>
    </edge>
    <edge id=":1898432393_1" function="internal">
        <lane id=":1898432393_1_0" index="0" speed="8.33" length="14.83" shape="278.56,232.65 275.39,230.70 272.29,228.70 269.24,226.62 266.21,224.46"/>
    </edge>
    <edge id=":1898432393_2" function="internal">
        <lane id=":1898432393_2_0" index="0" speed="7.84" length="14.08" shape="278.56,232.65 275.47,230.17 273.95,227.36 274.00,224.24 275.62,220.80"/>
    </edge>
    <edge id=":1898432393_3" function="internal">
        <lane id=":1898432393_3_0" index="0" speed="3.65" length="4.67" shape="278.56,232.65 277.94,231.35 278.01,230.46 278.76,229.98 280.20,229.91"/>
    </edge>
    <edge id=":1898432393_4" function="internal">
        <lane id=":1898432393_4_0" index="0" speed="6.31" length="8.74" shape="278.28,222.58 277.30,224.69 277.29,226.62 278.26,228.36 280.20,229.91"/>
    </edge>
    <edge id=":1898432393_5" function="internal">
        <lane id=":1898432393_5_0" index="0" speed="13.89" length="14.05" shape="278.28,222.58 270.56,234.32"/>
    </edge>
    <edge id=":1898432393_6" function="internal">
        <lane id=":1898432393_6_0" index="0" speed="7.85" length="5.65" shape="278.28,222.58 275.73,225.39 274.03,226.13"/>
    </edge>
    <edge id=":1898432393_7" function="internal">
        <lane id=":1898432393_7_0" index="0" speed="3.65" length="2.34" shape="278.28,222.58 276.95,223.13 276.06,223.02"/>
    </edge>
    <edge id=":1898432393_16" function="internal">
        <lane id=":1898432393_16_0" index="0" speed="7.85" length="8.42" shape="274.03,226.13 272.86,226.64 269.69,226.33 266.21,224.46"/>
    </edge>
    <edge id=":1898432393_17" function="internal">
        <lane id=":1898432393_17_0" index="0" speed="3.65" length="2.34" shape="276.06,223.02 275.62,222.24 275.62,220.80"/>
    </edge>
    <edge id=":1898432393_8" function="internal">
        <lane id=":1898432393_8_0" index="0" speed="6.33" length="8.75" shape="268.09,221.87 270.28,223.06 272.26,223.28 274.05,222.52 275.62,220.80"/>
    </edge>
    <edge id=":1898432393_9" function="internal">
        <lane id=":1898432393_9_0" index="0" speed="8.33" length="14.54" shape="268.09,221.87 271.09,224.01 274.06,226.03 277.07,227.98 280.20,229.91"/>
    </edge>
    <edge id=":1898432393_10" function="internal">
        <lane id=":1898432393_10_0" index="0" speed="8.20" length="14.29" shape="268.09,221.87 270.93,224.61 272.28,227.59 272.16,230.83 270.56,234.32"/>
    </edge>
    <edge id=":1898432393_11" function="internal">
        <lane id=":1898432393_11_0" index="0" speed="3.65" length="4.67" shape="268.09,221.87 268.59,223.23 268.44,224.11 267.65,224.52 266.21,224.46"/>
    </edge>
    <edge id=":1898432393_12" function="internal">
        <lane id=":1898432393_12_0" index="0" speed="6.74" length="9.34" shape="267.88,232.58 268.91,230.32 268.98,228.21 268.07,226.25 266.21,224.46"/>
    </edge>
    <edge id=":1898432393_13" function="internal">
        <lane id=":1898432393_13_0" index="0" speed="13.89" length="14.10" shape="267.88,232.58 275.62,220.80"/>
    </edge>
    <edge id=":1898432393_14" function="internal">
        <lane id=":1898432393_14_0" index="0" speed="8.12" length="5.93" shape="267.88,232.58 270.41,229.69 272.29,228.78"/>
    </edge>
    <edge id=":1898432393_15" function="internal">
        <lane id=":1898432393_15_0" index="0" speed="3.65" length="2.34" shape="267.88,232.58 269.20,232.01 270.09,232.11"/>
    </edge>
    <edge id=":1898432393_18" function="internal">
        <lane id=":1898432393_18_0" index="0" speed="8.12" length="8.34" shape="272.29,228.78 273.31,228.29 276.57,228.36 280.20,229.91"/>
    </edge>
    <edge id=":1898432393_19" function="internal">
        <lane id=":1898432393_19_0" index="0" speed="3.65" length="2.34" shape="270.09,232.11 270.54,232.88 270.56,234.32"/>
    </edge>
    <edge id=":1898432394_0" function="internal">
        <lane id=":1898432394_0_0" index="0" speed="6.08" length="7.72" shape="209.64,331.40 208.05,330.00 207.28,328.43 207.34,326.69 208.23,324.77"/>
    </edge>
    <edge id=":1898432394_1" function="internal">
        <lane id=":1898432394_1_0" index="0" speed="3.90" length="2.57" shape="210.92,326.51 210.62,327.15 210.60,327.73 210.86,328.25 211.39,328.72"/>
    </edge>
    <edge id=":1898432397_0" function="internal">
        <lane id=":1898432397_0_0" index="0" speed="13.89" length="0.10" shape="211.17,202.99 211.25,203.01"/>
    </edge>
    <edge id=":1898432397_1" function="internal">
        <lane id=":1898432397_1_0" index="0" speed="13.89" length="0.10" shape="211.74,199.85 211.82,199.86"/>
    </edge>
    <edge id=":1898432400_0" function="internal">
        <lane id=":1898432400_0_0" index="0" speed="9.29" length="8.88" shape="94.08,227.91 92.50,229.55 91.37,231.40 90.69,233.45 90.45,235.71"/>
    </edge>
    <edge id=":1898432400_1" function="internal">
        <lane id=":1898432400_1_0" index="0" speed="5.75" length="10.52" shape="94.08,227.91 91.10,229.99 88.98,230.40 87.72,229.15 87.31,226.23"/>
    </edge>
    <edge id=":1898432400_2" function="internal">
        <lane id=":1898432400_2_0" index="0" speed="3.65" length="4.67" shape="94.08,227.91 92.65,228.08 91.83,227.73 91.61,226.86 92.01,225.48"/>
    </edge>
    <edge id=":1898432400_3" function="internal">
        <lane id=":1898432400_3_0" index="0" speed="3.17" length="2.09" shape="90.51,226.25 90.65,226.56 91.02,226.38 91.50,225.95 92.01,225.48"/>
    </edge>
    <edge id=":1898432400_4" function="internal">
        <lane id=":1898432400_4_0" index="0" speed="13.89" length="9.46" shape="90.51,226.25 90.45,235.71"/>
    </edge>
    <edge id=":1898432400_5" function="internal">
        <lane id=":1898432400_5_0" index="0" speed="3.65" length="2.34" shape="90.51,226.25 89.71,227.45 88.90,227.84"/>
    </edge>
    <edge id=":1898432400_9" function="internal">
        <lane id=":1898432400_9_0" index="0" speed="3.65" length="2.34" shape="88.90,227.84 88.11,227.43 87.31,226.23"/>
    </edge>
    <edge id=":1898432400_6" function="internal">
        <lane id=":1898432400_6_0" index="0" speed="13.89" length="9.46" shape="87.25,235.69 87.31,226.23"/>
    </edge>
    <edge id=":1898432400_7" function="internal">
        <lane id=":1898432400_7_0" index="0" speed="10.57" length="6.64" shape="87.25,235.69 87.56,232.73 88.46,230.04 88.89,229.33"/>
    </edge>
    <edge id=":1898432400_8" function="internal">
        <lane id=":1898432400_8_0" index="0" speed="3.65" length="2.34" shape="87.25,235.69 88.06,234.50 88.86,234.10"/>
    </edge>
    <edge id=":1898432400_10" function="internal">
        <lane id=":1898432400_10_0" index="0" speed="10.57" length="4.98" shape="88.89,229.33 89.94,227.62 92.01,225.48"/>
    </edge>
    <edge id=":1898432400_11" function="internal">
        <lane id=":1898432400_11_0" index="0" speed="3.65" length="2.34" shape="88.86,234.10 89.66,234.51 90.45,235.71"/>
    </edge>
    <edge id=":1898432403_0" function="internal">
        <lane id=":1898432403_0_0" index="0" speed="13.89" length="0.31" shape="96.70,225.72 96.62,225.77 96.56,225.80 96.51,225.84 96.44,225.90"/>
    </edge>
    <edge id=":1898432403_1" function="internal">
        <lane id=":1898432403_1_0" index="0" speed="13.89" length="0.94" shape="94.37,223.46 94.58,223.29 94.73,223.17 94.89,223.07 95.13,222.93"/>
    </edge>
    <edge id=":1898432404_0" function="internal">
        <lane id=":1898432404_0_0" index="0" speed="8.33" length="0.17" shape="256.22,217.17 256.08,217.07"/>
    </edge>
    <edge id=":1898432404_1" function="internal">
        <lane id=":1898432404_1_0" index="0" speed="8.33" length="0.12" shape="258.01,214.51 258.11,214.58"/>
    </edge>
    <edge id=":1898432406_0" function="internal">
        <lane id=":1898432406_0_0" index="0" speed="13.89" length="0.65" shape="107.82,219.63 107.63,219.65 107.50,219.68 107.38,219.73 107.21,219.83"/>
    </edge>
    <edge id=":1898432406_1" function="internal">
        <lane id=":1898432406_1_0" index="0" speed="8.91" length="1.96" shape="105.64,217.03 106.15,216.76 106.52,216.60 106.91,216.52 107.48,216.45"/>
    </edge>
    <edge id=":1898432407_0" function="internal">
        <lane id=":1898432407_0_0" index="0" speed="13.89" length="14.89" shape="316.59,401.00 304.07,392.93"/>
    </edge>
    <edge id=":1898432407_1" function="internal">
        <lane id=":1898432407_1_0" index="0" speed="9.52" length="5.58" shape="316.59,401.00 314.00,398.68 313.04,396.81"/>
    </edge>
    <edge id=":1898432407_2" function="internal">
        <lane id=":1898432407_2_0" index="0" speed="3.65" length="2.34" shape="316.59,401.00 316.00,399.68 316.09,398.79"/>
    </edge>
    <edge id=":1898432407_9" function="internal">
        <lane id=":1898432407_9_0" index="0" speed="9.52" length="9.49" shape="313.04,396.81 312.45,395.66 311.94,391.94 312.46,387.53"/>
    </edge>
    <edge id=":1898432407_10" function="internal">
        <lane id=":1898432407_10_0" index="0" speed="3.65" length="2.34" shape="316.09,398.79 316.86,398.33 318.30,398.29"/>
    </edge>
    <edge id=":1898432407_3" function="internal">
        <lane id=":1898432407_3_0" index="0" speed="8.26" length="11.14" shape="315.59,388.22 315.15,391.60 315.46,394.40 316.51,396.64 318.30,398.29"/>
    </edge>
    <edge id=":1898432407_4" function="internal">
        <lane id=":1898432407_4_0" index="0" speed="7.51" length="15.80" shape="315.59,388.22 313.99,392.52 311.54,394.74 308.23,394.88 304.07,392.93"/>
    </edge>
    <edge id=":1898432407_5" function="internal">
        <lane id=":1898432407_5_0" index="0" speed="3.65" length="4.67" shape="315.59,388.22 314.55,389.22 313.68,389.44 312.99,388.87 312.46,387.53"/>
    </edge>
    <edge id=":1898432407_6" function="internal">
        <lane id=":1898432407_6_0" index="0" speed="5.87" length="9.12" shape="305.82,390.25 308.22,391.37 310.12,391.29 311.54,390.01 312.46,387.53"/>
    </edge>
    <edge id=":1898432407_7" function="internal">
        <lane id=":1898432407_7_0" index="0" speed="13.89" length="14.85" shape="305.82,390.25 318.30,398.29"/>
    </edge>
    <edge id=":1898432407_8" function="internal">
        <lane id=":1898432407_8_0" index="0" speed="3.65" length="2.34" shape="305.82,390.25 306.39,391.58 306.28,392.46"/>
    </edge>
    <edge id=":1898432407_11" function="internal">
        <lane id=":1898432407_11_0" index="0" speed="3.65" length="2.34" shape="306.28,392.46 305.51,392.92 304.07,392.93"/>
    </edge>
    <edge id=":1898432408_0" function="internal">
        <lane id=":1898432408_0_0" index="0" speed="13.89" length="15.42" shape="375.98,281.06 375.39,284.83 374.73,288.67 373.99,292.49 373.15,296.21"/>
    </edge>
    <edge id=":1898432408_1" function="internal">
        <lane id=":1898432408_1_0" index="0" speed="7.45" length="6.54" shape="375.98,281.06 374.63,285.67 373.41,286.90"/>
    </edge>
    <edge id=":1898432408_2" function="internal">
        <lane id=":1898432408_2_0" index="0" speed="3.65" length="2.34" shape="375.98,281.06 375.01,282.13 374.16,282.40"/>
    </edge>
    <edge id=":1898432408_9" function="internal">
        <lane id=":1898432408_9_0" index="0" speed="7.45" length="9.74" shape="373.41,286.90 372.29,288.04 368.96,288.17 364.64,286.05"/>
    </edge>
    <edge id=":1898432408_10" function="internal">
        <lane id=":1898432408_10_0" index="0" speed="3.65" length="2.34" shape="374.16,282.40 373.43,281.89 372.81,280.58"/>
    </edge>
    <edge id=":1898432408_3" function="internal">
        <lane id=":1898432408_3_0" index="0" speed="5.76" length="9.17" shape="366.43,283.40 368.86,284.59 370.73,284.52 372.05,283.18 372.81,280.58"/>
    </edge>
    <edge id=":1898432408_4" function="internal">
        <lane id=":1898432408_4_0" index="0" speed="9.68" length="15.45" shape="366.43,283.40 370.01,286.33 372.33,289.44 373.38,292.74 373.15,296.21"/>
    </edge>
    <edge id=":1898432408_5" function="internal">
        <lane id=":1898432408_5_0" index="0" speed="3.65" length="4.67" shape="366.43,283.40 366.98,284.73 366.86,285.62 366.08,286.06 364.64,286.05"/>
    </edge>
    <edge id=":1898432408_6" function="internal">
        <lane id=":1898432408_6_0" index="0" speed="8.43" length="11.56" shape="370.04,295.46 370.15,293.01 369.29,290.63 367.45,288.31 364.64,286.05"/>
    </edge>
    <edge id=":1898432408_7" function="internal">
        <lane id=":1898432408_7_0" index="0" speed="13.89" length="15.14" shape="370.04,295.46 370.87,291.78 371.59,288.06 372.23,284.31 372.81,280.58"/>
    </edge>
    <edge id=":1898432408_8" function="internal">
        <lane id=":1898432408_8_0" index="0" speed="3.65" length="2.34" shape="370.04,295.46 371.10,294.49 371.97,294.28"/>
    </edge>
    <edge id=":1898432408_11" function="internal">
        <lane id=":1898432408_11_0" index="0" speed="3.65" length="2.34" shape="371.97,294.28 372.66,294.86 373.15,296.21"/>
    </edge>
    <edge id=":1898432409_0" function="internal">
        <lane id=":1898432409_0_0" index="0" speed="13.89" length="0.82" shape="201.47,201.52 201.23,201.48 201.06,201.48 200.89,201.52 200.67,201.60"/>
    </edge>
    <edge id=":1898432409_1" function="internal">
        <lane id=":1898432409_1_0" index="0" speed="7.69" length="2.47" shape="199.54,198.60 200.23,198.36 200.72,198.25 201.23,198.26 201.95,198.35"/>
    </edge>
    <edge id=":1898432418_0" function="internal">
        <lane id=":1898432418_0_0" index="0" speed="13.89" length="0.34" shape="264.92,211.69 264.82,211.67 264.75,211.65 264.68,211.64 264.58,211.63"/>
    </edge>
    <edge id=":1898432418_1" function="internal">
        <lane id=":1898432418_1_0" index="0" speed="13.89" length="1.03" shape="264.81,208.44 265.11,208.46 265.32,208.49 265.52,208.54 265.82,208.62"/>
    </edge>
    <edge id=":1898432421_0" function="internal">
        <lane id=":1898432421_0_0" index="0" speed="13.89" length="0.12" shape="314.00,234.77 313.90,234.71"/>
    </edge>
    <edge id=":1898432421_1" function="internal">
        <lane id=":1898432421_1_0" index="0" speed="13.89" length="0.37" shape="315.45,231.91 315.77,232.10"/>
    </edge>
    <edge id=":1898432427_0" function="internal">
        <lane id=":1898432427_0_0" index="0" speed="13.89" length="0.10" shape="339.90,251.87 339.84,251.83"/>
    </edge>
    <edge id=":1898432427_1" function="internal">
        <lane id=":1898432427_1_0" index="0" speed="13.89" length="0.10" shape="341.60,249.16 341.53,249.12"/>
    </edge>
    <edge id=":1898432434_0" function="internal">
        <lane id=":1898432434_0_0" index="0" speed="13.89" length="14.69" shape="379.17,264.15 376.35,278.57"/>
    </edge>
    <edge id=":1898432434_1" function="internal">
        <lane id=":1898432434_1_0" index="0" speed="7.09" length="6.71" shape="379.17,264.15 377.63,268.66 376.37,270.14"/>
    </edge>
    <edge id=":1898432434_2" function="internal">
        <lane id=":1898432434_2_0" index="0" speed="3.65" length="2.34" shape="379.17,264.15 378.12,265.14 377.25,265.36"/>
    </edge>
    <edge id=":1898432434_9" function="internal">
        <lane id=":1898432434_9_0" index="0" speed="7.09" length="7.65" shape="376.37,270.14 375.52,271.14 372.84,271.58 369.59,269.99"/>
    </edge>
    <edge id=":1898432434_10" function="internal">
        <lane id=":1898432434_10_0" index="0" speed="3.65" length="2.34" shape="377.25,265.36 376.56,264.79 376.05,263.44"/>
    </edge>
    <edge id=":1898432434_3" function="internal">
        <lane id=":1898432434_3_0" index="0" speed="5.33" length="7.50" shape="371.48,267.42 372.95,268.03 374.19,267.58 375.23,266.05 376.05,263.44"/>
    </edge>
    <edge id=":1898432434_4" function="internal">
        <lane id=":1898432434_4_0" index="0" speed="9.49" length="12.83" shape="371.48,267.42 373.99,269.74 375.64,272.37 376.43,275.31 376.35,278.57"/>
    </edge>
    <edge id=":1898432434_5" function="internal">
        <lane id=":1898432434_5_0" index="0" speed="3.65" length="4.67" shape="371.48,267.42 371.97,268.77 371.82,269.65 371.03,270.06 369.59,269.99"/>
    </edge>
    <edge id=":1898432434_6" function="internal">
        <lane id=":1898432434_6_0" index="0" speed="8.17" length="9.34" shape="373.19,278.09 373.24,275.74 372.65,273.61 371.44,271.70 369.59,269.99"/>
    </edge>