<connections>
	<connection from="302479831_3067359666_1104387663_3067359666" to="302479831_3067359666_1104387663_1104387703" />
	<connection from="302479831_3067359666_1104387663_1104387703" to="302479831_3067359666_1104387663_3067359663" />
	<connection from="302479831_3067359666_1104387663_3067359663" to="302479831_3067359666_1104387663_2700783832" />
	<connection from="302479831_3067359666_1104387663_2700783832" to="302479831_3067359666_1104387663_3055140197" />
	<connection from="302479831_3067359666_1104387663_3055140197" to="302479831_3067359666_1104387663_1104387638" />
	<connection from="302479831_3067359666_1104387663_1104387638" to="302479831_3067359666_1104387663_2700783822" />
	<connection from="302479831_3067359666_1104387663_2700783822" to="302479831_3067359666_1104387663_3066899683" />
	<connection from="302479831_3067359666_1104387663_3066899683" to="302479831_3067359666_1104387663_3066899684" />
	<connection from="302479831_3067359666_1104387663_3066899684" to="302479831_3067359666_1104387663_3066899699" />
	<connection from="302479831_3067359666_1104387663_3066899699" to="302479831_3067359666_1104387663_3066900180" />
	<connection from="302479831_3067359666_1104387663_3066900180" to="302479831_3067359666_1104387663_3066899685" />
	<connection from="302479831_3067359666_1104387663_3066899685" to="302479831_1104387663_3067359666_1104387663" />
	<connection from="302479831_3067359666_1104387663_3066899685" to="166574723_1104387663_1780205726_1104387663" />
	<connection from="302479831_3067359666_1104387663_3066899685" to="302479831_1104387663_1510390354_1104387663" />
	<connection from="95200090_665880974_665880975_665880974" to="95200090_665880975_665880974_665880975" />
	<connection from="95200090_665880974_665880975_665880974" to="644585172_665880975_6061833821_665880975" />
	<connection from="301819660_2699983196_2699327229_2699983196" to="301819660_2699983196_2699327229_3059715589" />
	<connection from="301819660_2699983196_2699327229_3059715589" to="301819660_2699983196_2699327229_2699983197" />
	<connection from="301819660_2699983196_2699327229_2699983197" to="301819660_2699983196_2699327229_2699983199" />
	<connection from="301819660_2699983196_2699327229_2699983199" to="301819660_2699983196_2699327229_2700085469" />
	<connection from="301819660_2699983196_2699327229_2700085469" to="301819660_2699983196_2699327229_3059715579" />
	<connection from="301819660_2699983196_2699327229_3059715579" to="301819660_2699983196_2699327229_2699983201" />
	<connection from="301819660_2699983196_2699327229_2699983201" to="301819660_2699983196_2699327229_2699983202" />
	<connection from="301819660_2699983196_2699327229_2699983202" to="301796663_2699327229_2700041692_2699327229" />
	<connection from="301819660_2699983196_2699327229_2699983202" to="301819660_2699327229_2699983196_2699327229" />
	<connection from="301819660_2699983196_2699327229_2699983202" to="301796663_2699327229_2699194657_2699327229" />
	<connection from="264239352_2699055700_2699055701_2699055700" to="264239352_2699055700_2699055701_2700751907" />
	<connection from="264239352_2699055700_2699055701_2700751907" to="264239352_2699055701_2699055700_2699055701" />
	<connection from="264239352_2699055700_2699055701_2700751907" to="301456887_2699055701_3071810481_2699055701" />
	<connection from="301937561_3061132133_3061132009_3061132133" to="301937561_3061132133_3061132009_3061132352" />
	<connection from="301937561_3061132133_3061132009_3061132352" to="301937561_3061132133_3061132009_3061132351" />
	<connection from="301937561_3061132133_3061132009_3061132351" to="301937561_3061132133_3061132009_3061132350" />
	<connection from="301937561_3061132133_3061132009_3061132350" to="301937561_3061132133_3061132009_3061132349" />
	<connection from="301937561_3061132133_3061132009_3061132349" to="301937561_3061132133_3061132009_3061132348" />
	<connection from="301937561_3061132133_3061132009_3061132348" to="301937561_3061132133_3061132009_3061132347" />
	<connection from="301937561_3061132133_3061132009_3061132347" to="301937561_3061132133_3061132009_3061132346" />
	<connection from="301937561_3061132133_3061132009_3061132346" to="301937561_3061132133_3061132009_3061132345" />
	<connection from="301937561_3061132133_3061132009_3061132345" to="301937561_3061132133_3061132009_3061132344" />
	<connection from="301937561_3061132133_3061132009_3061132344" to="301937561_3061132133_3061132009_3061132343" />
	<connection from="301937561_3061132133_3061132009_3061132343" to="301937561_3061132133_3061132009_3061132353" />
	<connection from="301937561_3061132133_3061132009_3061132353" to="301937561_3061132133_3061132009_3061132354" />
	<connection from="301937561_3061132133_3061132009_3061132354" to="301937561_3061132133_3061132009_3061132355" />
	<connection from="301937561_3061132133_3061132009_3061132355" to="301937561_3061132133_3061132009_3061132356" />
	<connection from="301937561_3061132133_3061132009_3061132356" to="301937544_3061132009_3061132368_3061132009" />
	<connection from="301937561_3061132133_3061132009_3061132356" to="301937544_3061132009_3061131988_3061132009" />
	<connection from="301937561_3061132133_3061132009_3061132356" to="301937561_3061132009_3061132133_3061132009" />
	<connection from="302569718_3059715664_2699194665_3059715664" to="302569718_3059715664_2699194665_3059355133" />
	<connection from="302569718_3059715664_2699194665_3059355133" to="302569718_3059715664_2699194665_1962019522" />
	<connection from="302569718_3059715664_2699194665_1962019522" to="302569718_3059715664_2699194665_2699906609" />
	<connection from="302569718_3059715664_2699194665_2699906609" to="302569718_3059715664_2699194665_3059355134" />
	<connection from="302569718_3059715664_2699194665_3059355134" to="302569718_3059715664_2699194665_2699906611" />
	<connection from="302569718_3059715664_2699194665_2699906611" to="302569718_3059715664_2699194665_2699906615" />
	<connection from="302569718_3059715664_2699194665_2699906615" to="302569718_3059715664_2699194665_3059715650" />
	<connection from="302569718_3059715664_2699194665_3059715650" to="302569718_3059715664_2699194665_2699906618" />
	<connection from="302569718_3059715664_2699194665_2699906618" to="302569718_3059715664_2699194665_2699906636" />
	<connection from="302569718_3059715664_2699194665_2699906636" to="302569718_3059715664_2699194665_3007356222" />
	<connection from="302569718_3059715664_2699194665_3007356222" to="301819657_2699194665_3059715573_2699194665" />
	<connection from="302569718_3059715664_2699194665_3007356222" to="302569718_2699194665_3059715664_2699194665" />
	<connection from="301937571_3061132374_3061132368_3061132374" to="301937571_3061132374_3061132368_3061132373" />
	<connection from="301937571_3061132374_3061132368_3061132373" to="301937571_3061132374_3061132368_3061132372" />
	<connection from="301937571_3061132374_3061132368_3061132372" to="301937571_3061132374_3061132368_3061132371" />
	<connection from="301937571_3061132374_3061132368_3061132371" to="301937571_3061132374_3061132368_3061132370" />
	<connection from="301937571_3061132374_3061132368_3061132370" to="301937571_3061132374_3061132368_3061132369" />
	<connection from="301937571_3061132374_3061132368_3061132369" to="301937544_3061132368_3061132374_3061132368" />
	<connection from="301937571_3061132374_3061132368_3061132369" to="301937544_3061132368_3061132009_3061132368" />
	<connection from="301937571_3061132374_3061132368_3061132369" to="301937571_3061132368_3061132374_3061132368" />
	<connection from="50823641_3071810489_3071810488_3071810489" to="50823641_3071810488_3071810489_3071810488" />
	<connection from="50823641_3071810489_3071810488_3071810489" to="50823641_3071810488_3071810482_3071810488" />
	<connection from="50823641_3071810489_3071810488_3071810489" to="185559245_3071810488_3005104362_3071810488" />
	<connection from="264234601_2699055700_3007356214_2699055700" to="264234603_3007356214_2699055626_3007356214" />
	<connection from="264234601_2699055700_3007356214_2699055700" to="264234604_3007356214_2699055626_3007356214" />
	<connection from="264234601_2699055700_3007356214_2699055700" to="264234601_3007356214_2699055700_3007356214" />
	<connection from="185559053_1962019654_3007356230_1962019654" to="185559053_1962019654_3007356230_3007358079" />
	<connection from="185559053_1962019654_3007356230_3007358079" to="185559053_1962019654_3007356230_3007358077" />
	<connection from="185559053_1962019654_3007356230_3007358077" to="185559053_1962019654_3007356230_2449510854" />
	<connection from="185559053_1962019654_3007356230_2449510854" to="185559053_1962019654_3007356230_3007358076" />
	<connection from="185559053_1962019654_3007356230_3007358076" to="185559053_1962019654_3007356230_2449510852" />
	<connection from="185559053_1962019654_3007356230_2449510852" to="185559053_1962019654_3007356230_2449510850" />
	<connection from="185559053_1962019654_3007356230_2449510850" to="185559053_1962019654_3007356230_3007358081" />
	<connection from="185559053_1962019654_3007356230_3007358081" to="185559053_1962019654_3007356230_3007358080" />
	<connection from="185559053_1962019654_3007356230_3007358080" to="185559053_1962019654_3007356230_2449510848" />
	<connection from="185559053_1962019654_3007356230_2449510848" to="185559053_1962019654_3007356230_3062177310" />
	<connection from="185559053_1962019654_3007356230_3062177310" to="185559053_1962019654_3007356230_1962019625" />
	<connection from="185559053_1962019654_3007356230_1962019625" to="185559053_3007356230_1962019654_3007356230" />
	<connection from="185559053_1962019654_3007356230_1962019625" to="301937544_3007356230_3061132374_3007356230" />
	<connection from="185559160_2699244759_2699148434_2699244759" to="185559160_2699244759_2699148434_2699148431" />
	<connection from="185559160_2699244759_2699148434_2699148431" to="185559160_2699244759_2699148434_3005104393" />
	<connection from="185559160_2699244759_2699148434_3005104393" to="185559160_2699244759_2699148434_3005104394" />
	<connection from="185559160_2699244759_2699148434_3005104394" to="185559160_2699244759_2699148434_3005104397" />
	<connection from="185559160_2699244759_2699148434_3005104397" to="264225674_2699148434_2699148426_2699148434" />
	<connection from="301819657_2699194647_2700751937_2699194647" to="301819657_2699194647_2700751937_3059715559" />
	<connection from="301819657_2699194647_2700751937_3059715559" to="301819657_2699194647_2700751937_3059715560" />
	<connection from="301819657_2699194647_2700751937_3059715560" to="301819657_2699194647_2700751937_3059715561" />
	<connection from="301819657_2699194647_2700751937_3059715561" to="301819657_2699194647_2700751937_3059715562" />
	<connection from="301819657_2699194647_2700751937_3059715562" to="301819657_2699194647_2700751937_3059715563" />
	<connection from="301819657_2699194647_2700751937_3059715563" to="301819657_2699194647_2700751937_3059715564" />
	<connection from="301819657_2699194647_2700751937_3059715564" to="264239352_2700751937_2699055691_2700751937" />
	<connection from="301819657_2699194647_2700751937_3059715564" to="301819657_2700751937_2699194657_2700751937" />
	<connection from="137729140_1510388605_665881636_1510388605" to="137729140_1510388605_665881636_1510388437" />
	<connection from="137729140_1510388605_665881636_1510388437" to="137729140_1510388605_665881636_1510388331" />
	<connection from="137729140_1510388605_665881636_1510388331" to="137729140_1510388605_665881636_1510388076" />
	<connection from="137729140_1510388605_665881636_1510388076" to="137729140_1510388605_665881636_1510387518" />
	<connection from="137729140_1510388605_665881636_1510387518" to="137729140_1510388605_665881636_2970315335" />
	<connection from="137729140_1510388605_665881636_2970315335" to="137729140_1510388605_665881636_1510387226" />
	<connection from="137729140_1510388605_665881636_1510387226" to="137729140_1510388605_665881636_665881641" />
	<connection from="137729140_1510388605_665881636_665881641" to="137729140_1510388605_665881636_2970315336" />
	<connection from="137729140_1510388605_665881636_2970315336" to="137729140_1510388605_665881636_665881638" />
	<connection from="137729140_1510388605_665881636_665881638" to="137729175_665881636_665881631_665881636" />
	<connection from="137729140_1510388605_665881636_665881638" to="137729140_665881636_1510388605_665881636" />
	<connection from="185559201_3005104363_3005104362_3005104363" to="185559201_3005104363_3005104362_2702650861" />
	<connection from="185559201_3005104363_3005104362_2702650861" to="185559201_3005104363_3005104362_2702650856" />
	<connection from="185559201_3005104363_3005104362_2702650856" to="185559201_3005104363_3005104362_2702650848" />
	<connection from="185559201_3005104363_3005104362_2702650848" to="185559201_3005104363_3005104362_2702650841" />
	<connection from="185559201_3005104363_3005104362_2702650841" to="185559201_3005104363_3005104362_1962019437" />
	<connection from="185559201_3005104363_3005104362_1962019437" to="185559201_3005104363_3005104362_3005104365" />
	<connection from="185559201_3005104363_3005104362_3005104365" to="185559201_3005104363_3005104362_2699059721" />
	<connection from="185559201_3005104363_3005104362_2699059721" to="185559201_3005104363_3005104362_2699059722" />
	<connection from="185559201_3005104363_3005104362_2699059722" to="185559201_3005104363_3005104362_3005104366" />
	<connection from="185559201_3005104363_3005104362_3005104366" to="185559201_3005104363_3005104362_1962019412" />
	<connection from="185559201_3005104363_3005104362_1962019412" to="185559201_3005104363_3005104362_2702650843" />
	<connection from="185559201_3005104363_3005104362_2702650843" to="185559201_3005104363_3005104362_2702650846" />
	<connection from="185559201_3005104363_3005104362_2702650846" to="185559201_3005104363_3005104362_2702650858" />
	<connection from="185559201_3005104363_3005104362_2702650858" to="185559201_3005104363_3005104362_2702650863" />
	<connection from="185559201_3005104363_3005104362_2702650863" to="185559246_3005104362_3005104363_3005104362" />
	<connection from="137729140_665881636_1510388605_665881636" to="137729140_665881636_1510388605_665881638" />
	<connection from="137729140_665881636_1510388605_665881638" to="137729140_665881636_1510388605_2970315336" />
	<connection from="137729140_665881636_1510388605_2970315336" to="137729140_665881636_1510388605_665881641" />
	<connection from="137729140_665881636_1510388605_665881641" to="137729140_665881636_1510388605_1510387226" />
	<connection from="137729140_665881636_1510388605_1510387226" to="137729140_665881636_1510388605_2970315335" />
	<connection from="137729140_665881636_1510388605_2970315335" to="137729140_665881636_1510388605_1510387518" />
	<connection from="137729140_665881636_1510388605_1510387518" to="137729140_665881636_1510388605_1510388076" />
	<connection from="137729140_665881636_1510388605_1510388076" to="137729140_665881636_1510388605_1510388331" />
	<connection from="137729140_665881636_1510388605_1510388331" to="137729140_665881636_1510388605_1510388437" />
	<connection from="137729140_665881636_1510388605_1510388437" to="137729140_1510388605_665881636_1510388605" />
	<connection from="137729140_665881636_1510388605_1510388437" to="171142922_1510388605_1510389077_1510388605" />
	<connection from="50823641_3071810522_3071810480_3071810522" to="50823641_3071810522_3071810480_3071810523" />
	<connection from="50823641_3071810522_3071810480_3071810523" to="50823641_3071810522_3071810480_648172460" />
	<connection from="50823641_3071810522_3071810480_648172460" to="50823641_3071810522_3071810480_2700751859" />
	<connection from="50823641_3071810522_3071810480_2700751859" to="50823641_3071810522_3071810480_3056577769" />
	<connection from="50823641_3071810522_3071810480_3056577769" to="50823641_3071810522_3071810480_3071810479" />
	<connection from="50823641_3071810522_3071810480_3071810479" to="50823641_3071810522_3071810480_2773963862" />
	<connection from="50823641_3071810522_3071810480_2773963862" to="264236520_3071810480_2699055701_3071810480" />
	<connection from="50823641_3071810522_3071810480_2773963862" to="50823641_3071810480_3071810522_3071810480" />
	<connection from="50823641_3071810522_3071810480_2773963862" to="50823641_3071810480_3071810481_3071810480" />
	<connection from="50823602_648170814_648170894_648170814" to="50823602_648170814_648170894_3071810478" />
	<connection from="50823602_648170814_648170894_3071810478" to="50823602_648170814_648170894_648170901" />
	<connection from="50823602_648170814_648170894_648170901" to="50823602_648170814_648170894_648170900" />
	<connection from="50823602_648170814_648170894_648170900" to="50823602_648170814_648170894_648170899" />
	<connection from="50823602_648170814_648170894_648170899" to="50823602_648170814_648170894_648170898" />
	<connection from="50823602_648170814_648170894_648170898" to="50823602_648170814_648170894_648170897" />
	<connection from="50823602_648170814_648170894_648170897" to="50823602_648170814_648170894_648170896" />
	<connection from="50823602_648170814_648170894_648170896" to="50823602_648170894_648170814_648170894" />
	<connection from="50823602_648170814_648170894_648170896" to="706341110_648170894_648166977_648170894" />
	<connection from="50823602_648170814_648170894_648170896" to="706341110_648170894_3071810482_648170894" />
	<connection from="185559142_1962019441_1962019364_1962019441" to="185559142_1962019441_1962019364_1962019370" />
	<connection from="185559142_1962019441_1962019364_1962019370" to="185559164_1962019364_1962019372_1962019364" />
	<connection from="185559142_1962019441_1962019364_1962019370" to="185559164_1962019364_1962019327_1962019364" />
	<connection from="185559142_1962019441_1962019364_1962019370" to="185559142_1962019364_1962019441_1962019364" />
	<connection from="166574723_1104387663_1780205726_1104387663" to="166574723_1780205726_1104387663_1780205726" />
	<connection from="50823641_3071810480_3071810522_3071810480" to="50823641_3071810480_3071810522_2773963862" />
	<connection from="50823641_3071810480_3071810522_2773963862" to="50823641_3071810480_3071810522_3071810479" />
	<connection from="50823641_3071810480_3071810522_3071810479" to="50823641_3071810480_3071810522_3056577769" />
	<connection from="50823641_3071810480_3071810522_3056577769" to="50823641_3071810480_3071810522_2700751859" />
	<connection from="50823641_3071810480_3071810522_2700751859" to="50823641_3071810480_3071810522_648172460" />
	<connection from="50823641_3071810480_3071810522_648172460" to="50823641_3071810480_3071810522_3071810523" />
	<connection from="50823641_3071810480_3071810522_3071810523" to="50823641_3071810522_3071810480_3071810522" />
	<connection from="50823641_3071810480_3071810522_3071810523" to="50823641_3071810522_3071810520_3071810522" />
	<connection from="52345419_665881631_1104387621_665881631" to="52345419_665881631_1104387621_1510387176" />
	<connection from="52345419_665881631_1104387621_1510387176" to="52345419_665881631_1104387621_665881629" />
	<connection from="52345419_665881631_1104387621_665881629" to="52345419_665881631_1104387621_665881628" />
	<connection from="52345419_665881631_1104387621_665881628" to="52345419_665881631_1104387621_665881627" />
	<connection from="52345419_665881631_1104387621_665881627" to="52345419_665881631_1104387621_1510386127" />
	<connection from="52345419_665881631_1104387621_1510386127" to="52345419_665881631_1104387621_1510386117" />
	<connection from="52345419_665881631_1104387621_1510386117" to="52345419_665881631_1104387621_1104417615" />
	<connection from="52345419_665881631_1104387621_1104417615" to="52345419_665881631_1104387621_1510386651" />
	<connection from="52345419_665881631_1104387621_1510386651" to="52345419_665881631_1104387621_1104417566" />
	<connection from="52345419_665881631_1104387621_1104417566" to="52345419_1104387621_665881631_1104387621" />
	<connection from="52345419_665881631_1104387621_1104417566" to="644585172_1104387621_6061833821_1104387621" />
	<connection from="52345419_665881631_1104387621_1104417566" to="95200091_1104387621_665884711_1104387621" />
	<connection from="52345419_665881631_1104387621_1104417566" to="95200065_1104387621_665884714_1104387621" />
	<connection from="185559164_1962019327_1962019364_1962019327" to="185559164_1962019327_1962019364_1962019360" />
	<connection from="185559164_1962019327_1962019364_1962019360" to="185559164_1962019364_1962019372_1962019364" />
	<connection from="185559164_1962019327_1962019364_1962019360" to="185559164_1962019364_1962019327_1962019364" />
	<connection from="185559164_1962019327_1962019364_1962019360" to="185559142_1962019364_1962019441_1962019364" />
	<connection from="301819657_2699194657_2699194665_2699194657" to="301819657_2699194657_2699194665_3059715567" />
	<connection from="301819657_2699194657_2699194665_3059715567" to="301819657_2699194657_2699194665_3059715568" />
	<connection from="301819657_2699194657_2699194665_3059715568" to="301819657_2699194657_2699194665_3059715569" />
	<connection from="301819657_2699194657_2699194665_3059715569" to="301819657_2699194657_2699194665_3059715570" />
	<connection from="301819657_2699194657_2699194665_3059715570" to="301819657_2699194657_2699194665_3059715571" />
	<connection from="301819657_2699194657_2699194665_3059715571" to="301819657_2699194657_2699194665_3059715572" />
	<connection from="301819657_2699194657_2699194665_3059715572" to="301819657_2699194665_3059715573_2699194665" />
	<connection from="301819657_2699194657_2699194665_3059715572" to="302569718_2699194665_3059715664_2699194665" />
	<connection from="264234603_3007356214_2699055626_3007356214" to="264234603_3007356214_2699055626_2699055656" />
	<connection from="264234603_3007356214_2699055626_2699055656" to="264234603_3007356214_2699055626_2699055654" />
	<connection from="264234603_3007356214_2699055626_2699055654" to="264234603_3007356214_2699055626_2699055652" />
	<connection from="264234603_3007356214_2699055626_2699055652" to="264234603_3007356214_2699055626_2699055650" />
	<connection from="264234603_3007356214_2699055626_2699055650" to="264234603_3007356214_2699055626_2699055649" />
	<connection from="264234603_3007356214_2699055626_2699055649" to="264234603_3007356214_2699055626_2699055647" />
	<connection from="264234603_3007356214_2699055626_2699055647" to="264234603_3007356214_2699055626_2699055645" />
	<connection from="264234603_3007356214_2699055626_2699055645" to="264234603_3007356214_2699055626_2699055643" />
	<connection from="264234603_3007356214_2699055626_2699055643" to="264234603_3007356214_2699055626_2699055641" />
	<connection from="264234603_3007356214_2699055626_2699055641" to="264234603_3007356214_2699055626_2699055639" />
	<connection from="264234603_3007356214_2699055626_2699055639" to="264234603_3007356214_2699055626_2699055633" />
	<connection from="264234603_3007356214_2699055626_2699055633" to="264234603_3007356214_2699055626_2699055631" />
	<connection from="264234603_3007356214_2699055626_2699055631" to="264234603_3007356214_2699055626_2699055629" />
	<connection from="264234603_3007356214_2699055626_2699055629" to="264234603_3007356214_2699055626_2699055627" />
	<connection from="264234603_3007356214_2699055626_2699055627" to="264234604_2699055626_3007356214_2699055626" />
	<connection from="264234603_3007356214_2699055626_2699055627" to="264234603_2699055626_3007356214_2699055626" />
	<connection from="264234603_3007356214_2699055626_2699055627" to="264234604_2699055626_2699055624_2699055626" />
	<connection from="301937550_3061131988_3061132020_3061131988" to="301937550_3061131988_3061132020_3061132029" />
	<connection from="301937550_3061131988_3061132020_3061132029" to="301937550_3061131988_3061132020_3061132030" />
	<connection from="301937550_3061131988_3061132020_3061132030" to="301937550_3061131988_3061132020_3061132019" />
	<connection from="301937550_3061131988_3061132020_3061132019" to="301937550_3061131988_3061132020_3061132031" />
	<connection from="301937550_3061131988_3061132020_3061132031" to="301937550_3061131988_3061132020_3061132032" />
	<connection from="301937550_3061131988_3061132020_3061132032" to="301937550_3061132020_3061131988_3061132020" />
	<connection from="95200065_6061833826_648167856_6061833826" to="95200065_6061833826_648167856_4996697723" />
	<connection from="95200065_6061833826_648167856_4996697723" to="95200065_648167856_6061833826_648167856" />
	<connection from="264234600_2699055744_2699055577_2699055744" to="264234600_2699055744_2699055577_2699055589" />
	<connection from="264234600_2699055744_2699055577_2699055589" to="264234600_2699055744_2699055577_2699055587" />
	<connection from="264234600_2699055744_2699055577_2699055587" to="264234600_2699055744_2699055577_2699055586" />
	<connection from="264234600_2699055744_2699055577_2699055586" to="264234600_2699055744_2699055577_2699055585" />
	<connection from="264234600_2699055744_2699055577_2699055585" to="264234600_2699055744_2699055577_2699055584" />
	<connection from="264234600_2699055744_2699055577_2699055584" to="264234600_2699055744_2699055577_2699055583" />
	<connection from="264234600_2699055744_2699055577_2699055583" to="264234600_2699055744_2699055577_2699055582" />
	<connection from="264234600_2699055744_2699055577_2699055582" to="264234600_2699055744_2699055577_2699055581" />
	<connection from="264234600_2699055744_2699055577_2699055581" to="264234600_2699055744_2699055577_2699055580" />
	<connection from="264234600_2699055744_2699055577_2699055580" to="264234600_2699055744_2699055577_2699055579" />
	<connection from="264234600_2699055744_2699055577_2699055579" to="264234600_2699055744_2699055577_2699055578" />
	<connection from="264234600_2699055744_2699055577_2699055578" to="264234600_2699055577_2699055744_2699055577" />
	<connection from="264234600_2699055744_2699055577_2699055578" to="264234611_2699055577_2699055732_2699055577" />
	<connection from="264234600_2699055744_2699055577_2699055578" to="264234600_2699055577_2699055691_2699055577" />
	<connection from="264239352_2699055701_2699055700_2699055701" to="264239352_2699055701_2699055700_2700751907" />
	<connection from="264239352_2699055701_2699055700_2700751907" to="264239352_2699055700_2699055701_2699055700" />
	<connection from="264239352_2699055701_2699055700_2700751907" to="264239352_2699055700_3056577775_2699055700" />
	<connection from="264239352_2699055701_2699055700_2700751907" to="264234601_2699055700_3007356214_2699055700" />
	<connection from="185559192_2699035700_1104387709_2699035700" to="185559192_2699035700_1104387709_3066899693" />
	<connection from="185559192_2699035700_1104387709_3066899693" to="185559192_2699035700_1104387709_3066899692" />
	<connection from="185559192_2699035700_1104387709_3066899692" to="185559192_2699035700_1104387709_2778690834" />
	<connection from="185559192_2699035700_1104387709_2778690834" to="185559192_2699035700_1104387709_3066899697" />
	<connection from="185559192_2699035700_1104387709_3066899697" to="185559192_2699035700_1104387709_3066899689" />
	<connection from="185559192_2699035700_1104387709_3066899689" to="185559192_2699035700_1104387709_3066899695" />
	<connection from="185559192_2699035700_1104387709_3066899695" to="302479832_1104387709_3067359667_1104387709" />
	<connection from="185559192_2699035700_1104387709_3066899695" to="302479833_1104387709_2699035687_1104387709" />
	<connection from="264223127_2699055759_2699220301_2699055759" to="264223127_2699055759_2699220301_2699008630" />
	<connection from="264223127_2699055759_2699220301_2699008630" to="264223127_2699055759_2699220301_2699220304" />
	<connection from="264223127_2699055759_2699220301_2699220304" to="264223127_2699055759_2699220301_3007356227" />
	<connection from="264223127_2699055759_2699220301_3007356227" to="264223127_2699055759_2699220301_2699220302" />
	<connection from="264223127_2699055759_2699220301_2699220302" to="301819665_2699220301_3059715667_2699220301" />
	<connection from="264223127_2699055759_2699220301_2699220302" to="301819665_2699220301_3059715664_2699220301" />
	<connection from="264223127_2699055759_2699220301_2699220302" to="264223127_2699220301_2699055759_2699220301" />
	<connection from="278042067_2824723434_2824723438_2824723434" to="278042067_2824723434_2824723438_2824723439" />
	<connection from="278042067_2824723434_2824723438_2824723439" to="278042067_2824723434_2824723438_2824723441" />
	<connection from="278042067_2824723434_2824723438_2824723441" to="278042067_2824723434_2824723438_2824723442" />
	<connection from="278042067_2824723434_2824723438_2824723442" to="278042067_2824723438_2824723434_2824723438" />
	<connection from="301937545_3061132015_3061132016_3061132015" to="301937545_3061132016_3061132015_3061132016" />
	<connection from="301937545_3061132015_3061132016_3061132015" to="301937550_3061132016_3061131988_3061132016" />
	<connection from="185558765_2699244763_3071810489_2699244763" to="185558765_2699244763_3071810489_2699244762" />
	<connection from="185558765_2699244763_3071810489_2699244762" to="50823641_3071810489_3071810488_3071810489" />
	<connection from="264234611_2699055732_2699055577_2699055732" to="264234611_2699055732_2699055577_2699055745" />
	<connection from="264234611_2699055732_2699055577_2699055745" to="264234611_2699055732_2699055577_2699055746" />
	<connection from="264234611_2699055732_2699055577_2699055746" to="264234611_2699055732_2699055577_2699055747" />
	<connection from="264234611_2699055732_2699055577_2699055747" to="264234611_2699055732_2699055577_2699055748" />
	<connection from="264234611_2699055732_2699055577_2699055748" to="264234611_2699055732_2699055577_2699055749" />
	<connection from="264234611_2699055732_2699055577_2699055749" to="264234611_2699055732_2699055577_2699055750" />
	<connection from="264234611_2699055732_2699055577_2699055750" to="264234611_2699055732_2699055577_2699055751" />