<?xml version="1.0" encoding="UTF-8"?>

<!-- generated on Tue Nov 26 12:49:38 2019 by Eclipse SUMO netconvert Version 1.2.0
<configuration xmlns:xsi="http://www.w3.org/2001/XMLSchema-instance" xsi:noNamespaceSchemaLocation="http://sumo.dlr.de/xsd/netconvertConfiguration.xsd">

    <input>
        <node-files value="/home/vsimrti/scenarios/ids/sumo/gualtar4/gualtar4.nod.xml"/>
        <edge-files value="/home/vsimrti/scenarios/ids/sumo/gualtar4/gualtar4.edg.xml"/>
        <connection-files value="/home/vsimrti/scenarios/ids/sumo/gualtar4/gualtar4.con.xml"/>
    </input>

    <output>
        <output-file value="/home/vsimrti/scenarios/ids/sumo/gualtar4/gualtar4.net.xml"/>
    </output>

</configuration>
-->

<net version="1.1" junctionCornerDetail="5" limitTurnSpeed="5.50" xmlns:xsi="http://www.w3.org/2001/XMLSchema-instance" xsi:noNamespaceSchemaLocation="http://sumo.dlr.de/xsd/net_file.xsd">

    <location netOffset="-540531.28,-4579939.44" convBoundary="0.00,0.00,2175.30,1827.46" origBoundary="540531.28,4579939.44,542706.58,4581766.90" projParameter="!"/>

    <edge id=":1104387537_0" function="internal">
        <lane id=":1104387537_0_0" index="0" speed="8.33" length="0.28" shape="796.86,727.74 796.80,727.79 796.76,727.83 796.72,727.88 796.67,727.94"/>
    </edge>
    <edge id=":1104387537_1" function="internal">
        <lane id=":1104387537_1_0" index="0" speed="8.33" length="0.83" shape="794.17,725.94 794.33,725.74 794.44,725.62 794.56,725.50 794.75,725.33"/>
    </edge>
    <edge id=":1104387539_0" function="internal">
        <lane id=":1104387539_0_0" index="0" speed="25.00" length="0.31" shape="1310.32,1424.41 1310.11,1424.63"/>
    </edge>
    <edge id=":1104387539_1" function="internal">
        <lane id=":1104387539_1_0" index="0" speed="25.00" length="0.29" shape="1307.77,1422.46 1307.96,1422.24"/>
    </edge>
    <edge id=":1104387547_0" function="internal">
        <lane id=":1104387547_0_0" index="0" speed="15.33" length="0.95" shape="1475.92,1239.14 1476.27,1239.37 1476.50,1239.54 1476.71,1239.74 1476.99,1240.06"/>
        <lane id=":1104387547_0_1" index="1" speed="18.06" length="0.95" shape="1474.20,1241.84 1474.32,1241.92 1474.40,1241.97 1474.47,1242.04 1474.56,1242.15"/>
    </edge>
    <edge id=":1104387574_0" function="internal">
        <lane id=":1104387574_0_0" index="0" speed="15.21" length="0.95" shape="1469.61,1235.38 1470.01,1235.50 1470.29,1235.60 1470.54,1235.73 1470.90,1235.96"/>
        <lane id=":1104387574_0_1" index="1" speed="18.06" length="0.95" shape="1468.76,1238.47 1468.89,1238.50 1468.98,1238.54 1469.07,1238.58 1469.19,1238.66"/>
    </edge>
    <edge id=":1104387621_0" function="internal">
        <lane id=":1104387621_0_0" index="0" speed="8.33" length="11.63" shape="876.82,1115.02 873.42,1114.76 870.58,1115.29 868.30,1116.61 866.59,1118.71"/>
    </edge>
    <edge id=":1104387621_1" function="internal">
        <lane id=":1104387621_1_0" index="0" speed="8.33" length="16.57" shape="876.82,1115.02 872.93,1114.10 868.87,1112.68 864.98,1110.88 861.59,1108.78"/>
    </edge>
    <edge id=":1104387621_2" function="internal">
        <lane id=":1104387621_2_0" index="0" speed="7.52" length="15.77" shape="876.82,1115.02 872.47,1113.61 870.14,1111.25 869.84,1107.96 871.58,1103.72"/>
    </edge>
    <edge id=":1104387621_3" function="internal">
        <lane id=":1104387621_3_0" index="0" speed="3.65" length="4.67" shape="876.82,1115.02 875.77,1114.02 875.52,1113.17 876.05,1112.45 877.37,1111.87"/>
    </edge>
    <edge id=":1104387621_4" function="internal">
        <lane id=":1104387621_4_0" index="0" speed="5.88" length="9.11" shape="874.34,1105.34 873.34,1107.79 873.51,1109.69 874.85,1111.05 877.37,1111.87"/>
    </edge>
    <edge id=":1104387621_5" function="internal">
        <lane id=":1104387621_5_0" index="0" speed="8.33" length="15.45" shape="874.34,1105.34 866.59,1118.71"/>
    </edge>
    <edge id=":1104387621_6" function="internal">
        <lane id=":1104387621_6_0" index="0" speed="8.03" length="6.54" shape="874.34,1105.34 871.58,1108.91 869.83,1109.93"/>
    </edge>
    <edge id=":1104387621_7" function="internal">
        <lane id=":1104387621_7_0" index="0" speed="3.65" length="2.34" shape="874.34,1105.34 873.05,1105.97 872.15,1105.91"/>
    </edge>
    <edge id=":1104387621_16" function="internal">
        <lane id=":1104387621_16_0" index="0" speed="8.03" length="8.89" shape="869.83,1109.93 868.54,1110.68 865.21,1110.64 861.59,1108.78"/>
    </edge>
    <edge id=":1104387621_17" function="internal">
        <lane id=":1104387621_17_0" index="0" speed="3.65" length="2.34" shape="872.15,1105.91 871.66,1105.16 871.58,1103.72"/>
    </edge>
    <edge id=":1104387621_8" function="internal">
        <lane id=":1104387621_8_0" index="0" speed="6.55" length="9.88" shape="863.48,1106.20 865.73,1107.33 867.83,1107.29 869.78,1106.09 871.58,1103.72"/>
    </edge>
    <edge id=":1104387621_9" function="internal">
        <lane id=":1104387621_9_0" index="0" speed="8.33" length="15.12" shape="863.48,1106.20 866.66,1108.21 870.09,1109.82 873.69,1111.03 877.37,1111.87"/>
    </edge>
    <edge id=":1104387621_10" function="internal">
        <lane id=":1104387621_10_0" index="0" speed="8.33" length="14.36" shape="863.48,1106.20 866.39,1108.98 867.88,1111.98 867.95,1115.23 866.59,1118.71"/>
    </edge>
    <edge id=":1104387621_11" function="internal">
        <lane id=":1104387621_11_0" index="0" speed="3.65" length="4.67" shape="863.48,1106.20 863.97,1107.56 863.82,1108.44 863.03,1108.85 861.59,1108.78"/>
    </edge>
    <edge id=":1104387621_12" function="internal">
        <lane id=":1104387621_12_0" index="0" speed="6.96" length="9.60" shape="863.82,1117.11 864.69,1114.82 864.61,1112.67 863.58,1110.66 861.59,1108.78"/>
    </edge>
    <edge id=":1104387621_13" function="internal">
        <lane id=":1104387621_13_0" index="0" speed="8.33" length="15.47" shape="863.82,1117.11 871.58,1103.72"/>
    </edge>
    <edge id=":1104387621_14" function="internal">
        <lane id=":1104387621_14_0" index="0" speed="8.33" length="5.92" shape="863.82,1117.11 866.16,1114.19 868.02,1113.05"/>
    </edge>
    <edge id=":1104387621_15" function="internal">
        <lane id=":1104387621_15_0" index="0" speed="3.65" length="2.34" shape="863.82,1117.11 865.11,1116.47 866.00,1116.52"/>
    </edge>
    <edge id=":1104387621_18" function="internal">
        <lane id=":1104387621_18_0" index="0" speed="8.33" length="9.64" shape="868.02,1113.05 869.19,1112.34 872.93,1111.56 877.37,1111.87"/>
    </edge>
    <edge id=":1104387621_19" function="internal">
        <lane id=":1104387621_19_0" index="0" speed="3.65" length="2.34" shape="866.00,1116.52 866.50,1117.27 866.59,1118.71"/>
    </edge>
    <edge id=":1104387638_0" function="internal">
        <lane id=":1104387638_0_0" index="0" speed="25.00" length="0.27" shape="1110.58,1664.19 1110.41,1664.40"/>
    </edge>
    <edge id=":1104387638_1" function="internal">
        <lane id=":1104387638_1_0" index="0" speed="25.00" length="0.13" shape="1107.95,1662.36 1108.03,1662.25"/>
    </edge>
    <edge id=":1104387663_0" function="internal">
        <lane id=":1104387663_0_0" index="0" speed="25.00" length="14.49" shape="1204.60,1540.18 1194.93,1550.96"/>
    </edge>
    <edge id=":1104387663_1" function="internal">
        <lane id=":1104387663_1_0" index="0" speed="8.59" length="5.69" shape="1204.60,1540.18 1201.76,1542.50 1199.84,1543.09"/>
    </edge>
    <edge id=":1104387663_2" function="internal">
        <lane id=":1104387663_2_0" index="0" speed="3.65" length="2.34" shape="1204.60,1540.18 1203.21,1540.54 1202.35,1540.30"/>
    </edge>
    <edge id=":1104387663_9" function="internal">
        <lane id=":1104387663_9_0" index="0" speed="8.59" length="8.80" shape="1199.84,1543.09 1198.64,1543.46 1195.22,1543.05 1191.53,1541.27"/>
    </edge>
    <edge id=":1104387663_10" function="internal">
        <lane id=":1104387663_10_0" index="0" speed="3.65" length="2.34" shape="1202.35,1540.30 1202.02,1539.47 1202.22,1538.04"/>
    </edge>
    <edge id=":1104387663_3" function="internal">
        <lane id=":1104387663_3_0" index="0" speed="7.20" length="9.91" shape="1193.25,1538.58 1195.84,1539.84 1198.19,1540.17 1200.32,1539.57 1202.22,1538.04"/>
    </edge>
    <edge id=":1104387663_4" function="internal">
        <lane id=":1104387663_4_0" index="0" speed="7.74" length="14.84" shape="1193.25,1538.58 1196.40,1541.30 1197.73,1544.28 1197.24,1547.50 1194.93,1550.96"/>
    </edge>
    <edge id=":1104387663_5" function="internal">
        <lane id=":1104387663_5_0" index="0" speed="3.65" length="4.67" shape="1193.25,1538.58 1193.83,1539.90 1193.74,1540.79 1192.97,1541.24 1191.53,1541.27"/>
    </edge>
    <edge id=":1104387663_6" function="internal">
        <lane id=":1104387663_6_0" index="0" speed="6.18" length="9.05" shape="1192.55,1548.82 1193.96,1546.71 1194.26,1544.75 1193.45,1542.93 1191.53,1541.27"/>
    </edge>
    <edge id=":1104387663_7" function="internal">
        <lane id=":1104387663_7_0" index="0" speed="25.00" length="14.49" shape="1192.55,1548.82 1202.22,1538.04"/>
    </edge>
    <edge id=":1104387663_8" function="internal">
        <lane id=":1104387663_8_0" index="0" speed="3.65" length="2.34" shape="1192.55,1548.82 1193.94,1548.46 1194.81,1548.70"/>
    </edge>
    <edge id=":1104387663_11" function="internal">
        <lane id=":1104387663_11_0" index="0" speed="3.65" length="2.34" shape="1194.81,1548.70 1195.13,1549.53 1194.93,1550.96"/>
    </edge>
    <edge id=":1104387680_0" function="internal">
        <lane id=":1104387680_0_0" index="0" speed="8.33" length="1.42" shape="787.82,1054.66 787.48,1054.41 787.26,1054.22 787.07,1054.01 786.82,1053.67"/>
    </edge>
    <edge id=":1104387680_1" function="internal">
        <lane id=":1104387680_1_0" index="0" speed="8.33" length="0.47" shape="789.38,1051.75 789.46,1051.86 789.53,1051.94 789.60,1052.00 789.71,1052.08"/>
    </edge>
    <edge id=":1104387703_0" function="internal">
        <lane id=":1104387703_0_0" index="0" speed="25.00" length="0.31" shape="994.92,1805.89 994.72,1806.13"/>
    </edge>
    <edge id=":1104387703_1" function="internal">
        <lane id=":1104387703_1_0" index="0" speed="25.00" length="0.27" shape="992.25,1804.09 992.42,1803.89"/>
    </edge>
    <edge id=":1104387709_0" function="internal">
        <lane id=":1104387709_0_0" index="0" speed="13.89" length="3.21" shape="1426.98,1296.55 1426.28,1297.19 1425.83,1297.66 1425.40,1298.15 1424.77,1298.87"/>
    </edge>
    <edge id=":1104387709_1" function="internal">
        <lane id=":1104387709_1_0" index="0" speed="13.89" length="2.80" shape="1422.39,1296.73 1422.96,1296.12 1423.36,1295.71 1423.74,1295.29 1424.23,1294.62"/>
    </edge>
    <edge id=":1104387730_0" function="internal">
        <lane id=":1104387730_0_0" index="0" speed="8.33" length="0.81" shape="733.52,985.71 733.36,985.53 733.24,985.42 733.10,985.34 732.88,985.24"/>
    </edge>
    <edge id=":1104387730_1" function="internal">
        <lane id=":1104387730_1_0" index="0" speed="7.76" length="2.42" shape="734.07,982.27 734.72,982.55 735.16,982.80 735.52,983.13 735.99,983.68"/>
    </edge>
    <edge id=":1104417566_0" function="internal">
        <lane id=":1104417566_0_0" index="0" speed="8.33" length="0.70" shape="882.19,1115.91 881.98,1115.90 881.84,1115.89 881.70,1115.87 881.49,1115.84"/>
    </edge>
    <edge id=":1104417566_1" function="internal">
        <lane id=":1104417566_1_0" index="0" speed="8.33" length="0.23" shape="882.04,1112.68 882.11,1112.70 882.16,1112.70 882.21,1112.70 882.28,1112.71"/>
    </edge>
    <edge id=":1104417615_0" function="internal">
        <lane id=":1104417615_0_0" index="0" speed="8.33" length="1.14" shape="945.04,1113.29 944.72,1113.41 944.50,1113.47 944.27,1113.51 943.93,1113.54"/>
    </edge>
    <edge id=":1104417615_1" function="internal">
        <lane id=":1104417615_1_0" index="0" speed="8.33" length="0.38" shape="943.61,1110.36 943.72,1110.35 943.80,1110.34 943.87,1110.31 943.98,1110.28"/>
    </edge>
    <edge id=":1510383850_0" function="internal">
        <lane id=":1510383850_0_0" index="0" speed="8.33" length="0.43" shape="435.06,949.09 434.93,949.12 434.85,949.15 434.78,949.19 434.67,949.26"/>
    </edge>
    <edge id=":1510383850_1" function="internal">
        <lane id=":1510383850_1_0" index="0" speed="8.33" length="1.28" shape="433.00,946.52 433.33,946.33 433.56,946.21 433.81,946.12 434.17,946.01"/>
    </edge>
    <edge id=":1510386117_0" function="internal">
        <lane id=":1510386117_0_0" index="0" speed="8.33" length="0.78" shape="1001.23,1093.65 1001.01,1093.62 1000.85,1093.62 1000.69,1093.65 1000.47,1093.72"/>
    </edge>
    <edge id=":1510386117_1" function="internal">
        <lane id=":1510386117_1_0" index="0" speed="7.92" length="2.33" shape="999.41,1090.71 1000.06,1090.49 1000.53,1090.39 1001.00,1090.39 1001.69,1090.48"/>
    </edge>
    <edge id=":1510386127_0" function="internal">
        <lane id=":1510386127_0_0" index="0" speed="4.05" length="1.57" shape="1009.13,1095.49 1008.91,1095.15 1008.64,1094.88 1008.30,1094.70 1007.91,1094.60"/>
    </edge>
    <edge id=":1510386127_1" function="internal">
        <lane id=":1510386127_1_0" index="0" speed="6.37" length="4.70" shape="1008.36,1091.44 1009.54,1091.74 1010.54,1092.28 1011.36,1093.07 1012.00,1094.09"/>
    </edge>
    <edge id=":1510386651_0" function="internal">
        <lane id=":1510386651_0_0" index="0" speed="8.33" length="0.63" shape="913.05,1116.72 912.87,1116.74 912.74,1116.75 912.61,1116.75 912.43,1116.75"/>
    </edge>
    <edge id=":1510386651_1" function="internal">
        <lane id=":1510386651_1_0" index="0" speed="8.33" length="0.21" shape="912.52,1113.55 912.58,1113.55 912.62,1113.55 912.66,1113.55 912.73,1113.54"/>
    </edge>
    <edge id=":1510387176_0" function="internal">
        <lane id=":1510387176_0_0" index="0" speed="6.74" length="3.69" shape="1019.79,1182.79 1018.79,1182.37 1018.15,1181.95 1017.68,1181.34 1017.19,1180.38"/>
    </edge>
    <edge id=":1510387176_1" function="internal">
        <lane id=":1510387176_1_0" index="0" speed="4.25" length="1.23" shape="1020.08,1179.01 1020.24,1179.33 1020.40,1179.53 1020.61,1179.67 1020.94,1179.81"/>
    </edge>
    <edge id=":1510387226_0" function="internal">
        <lane id=":1510387226_0_0" index="0" speed="4.36" length="1.09" shape="1159.66,1186.03 1159.37,1185.89 1159.16,1185.83 1158.93,1185.84 1158.62,1185.89"/>
    </edge>
    <edge id=":1510387226_1" function="internal">
        <lane id=":1510387226_1_0" index="0" speed="6.95" length="3.26" shape="1157.98,1182.75 1158.92,1182.59 1159.60,1182.58 1160.24,1182.77 1161.11,1183.18"/>
    </edge>
    <edge id=":1510387518_0" function="internal">
        <lane id=":1510387518_0_0" index="0" speed="8.33" length="0.10" shape="1174.25,1212.68 1174.29,1212.78"/>
    </edge>
    <edge id=":1510387518_1" function="internal">
        <lane id=":1510387518_1_0" index="0" speed="8.33" length="0.10" shape="1177.28,1211.66 1177.32,1211.75"/>
    </edge>
    <edge id=":1510388076_0" function="internal">
        <lane id=":1510388076_0_0" index="0" speed="8.33" length="0.83" shape="1181.43,1235.97 1181.32,1235.75 1181.25,1235.60 1181.20,1235.44 1181.13,1235.21"/>
    </edge>
    <edge id=":1510388076_1" function="internal">
        <lane id=":1510388076_1_0" index="0" speed="8.33" length="0.28" shape="1184.19,1234.27 1184.21,1234.35 1184.23,1234.41 1184.25,1234.46 1184.29,1234.53"/>
    </edge>
    <edge id=":1510388331_0" function="internal">
        <lane id=":1510388331_0_0" index="0" speed="8.33" length="0.61" shape="1191.08,1255.30 1191.06,1255.12 1191.03,1255.00 1190.99,1254.88 1190.91,1254.72"/>
    </edge>
    <edge id=":1510388331_1" function="internal">
        <lane id=":1510388331_1_0" index="0" speed="8.33" length="1.83" shape="1193.77,1253.28 1194.01,1253.76 1194.14,1254.11 1194.21,1254.48 1194.26,1255.02"/>
    </edge>
    <edge id=":1510388437_0" function="internal">
        <lane id=":1510388437_0_0" index="0" speed="8.33" length="0.72" shape="1195.99,1274.68 1196.01,1274.90 1196.02,1275.04 1196.02,1275.19 1196.00,1275.40"/>
    </edge>
    <edge id=":1510388437_1" function="internal">
        <lane id=":1510388437_1_0" index="0" speed="8.33" length="0.24" shape="1192.81,1275.20 1192.81,1275.13 1192.81,1275.08 1192.81,1275.03 1192.81,1274.96"/>
    </edge>
    <edge id=":1510388605_0" function="internal">
        <lane id=":1510388605_0_0" index="0" speed="8.33" length="1.63" shape="1191.51,1300.15 1191.39,1299.69 1191.32,1299.36 1191.31,1299.03 1191.34,1298.54"/>
    </edge>
    <edge id=":1510388605_1" function="internal">
        <lane id=":1510388605_1_0" index="0" speed="8.33" length="0.54" shape="1194.53,1298.74 1194.53,1298.90 1194.53,1299.02 1194.55,1299.13 1194.59,1299.28"/>
    </edge>
    <edge id=":1510389077_0" function="internal">
        <lane id=":1510389077_0_0" index="0" speed="8.07" length="2.25" shape="1204.01,1342.40 1203.57,1341.90 1203.30,1341.52 1203.12,1341.10 1202.93,1340.46"/>
    </edge>
    <edge id=":1510389077_1" function="internal">
        <lane id=":1510389077_1_0" index="0" speed="8.33" length="0.75" shape="1206.01,1339.59 1206.08,1339.80 1206.14,1339.94 1206.22,1340.07 1206.37,1340.24"/>
    </edge>
    <edge id=":1510389401_0" function="internal">
        <lane id=":1510389401_0_0" index="0" speed="8.33" length="0.38" shape="1233.26,1374.39 1233.21,1374.29 1233.16,1374.22 1233.12,1374.16 1233.04,1374.08"/>
    </edge>
    <edge id=":1510389401_1" function="internal">
        <lane id=":1510389401_1_0" index="0" speed="8.33" length="1.14" shape="1235.40,1371.92 1235.63,1372.17 1235.77,1372.35 1235.90,1372.54 1236.06,1372.84"/>
    </edge>
    <edge id=":1510389419_0" function="internal">
        <lane id=":1510389419_0_0" index="0" speed="8.33" length="0.24" shape="1240.55,1387.60 1240.52,1387.53 1240.50,1387.48 1240.48,1387.44 1240.45,1387.37"/>
    </edge>
    <edge id=":1510389419_1" function="internal">
        <lane id=":1510389419_1_0" index="0" speed="8.33" length="0.73" shape="1243.25,1385.82 1243.35,1386.01 1243.42,1386.15 1243.48,1386.29 1243.55,1386.49"/>
    </edge>
    <edge id=":1510389906_0" function="internal">
        <lane id=":1510389906_0_0" index="0" speed="8.33" length="0.18" shape="1258.51,1436.34 1258.45,1436.16"/>
    </edge>
    <edge id=":1510389906_1" function="internal">
        <lane id=":1510389906_1_0" index="0" speed="8.33" length="0.30" shape="1261.46,1435.06 1261.55,1435.33"/>
    </edge>
    <edge id=":1510390283_0" function="internal">
        <lane id=":1510390283_0_0" index="0" speed="8.33" length="1.78" shape="1264.50,1453.45 1264.17,1453.04 1263.97,1452.74 1263.82,1452.41 1263.65,1451.91"/>
    </edge>
    <edge id=":1510390283_1" function="internal">
        <lane id=":1510390283_1_0" index="0" speed="8.33" length="0.59" shape="1266.69,1450.91 1266.74,1451.07 1266.79,1451.18 1266.86,1451.28 1266.97,1451.42"/>
    </edge>
    <edge id=":1510390354_0" function="internal">
        <lane id=":1510390354_0_0" index="0" speed="25.00" length="14.40" shape="1279.83,1457.30 1270.10,1467.92"/>
    </edge>
    <edge id=":1510390354_1" function="internal">
        <lane id=":1510390354_1_0" index="0" speed="7.78" length="5.92" shape="1279.83,1457.30 1276.63,1459.89 1274.88,1460.33"/>
    </edge>
    <edge id=":1510390354_2" function="internal">
        <lane id=":1510390354_2_0" index="0" speed="3.65" length="2.34" shape="1279.83,1457.30 1278.43,1457.63 1277.57,1457.38"/>
    </edge>
    <edge id=":1510390354_9" function="internal">
        <lane id=":1510390354_9_0" index="0" speed="7.78" length="8.82" shape="1274.88,1460.33 1273.48,1460.69 1270.38,1459.70 1267.34,1456.92"/>
    </edge>
    <edge id=":1510390354_10" function="internal">
        <lane id=":1510390354_10_0" index="0" speed="3.65" length="2.34" shape="1277.57,1457.38 1277.25,1456.55 1277.48,1455.12"/>
    </edge>
    <edge id=":1510390354_3" function="internal">
        <lane id=":1510390354_3_0" index="0" speed="6.23" length="9.05" shape="1269.82,1454.89 1271.68,1456.60 1273.58,1457.20 1275.52,1456.71 1277.48,1455.12"/>
    </edge>
    <edge id=":1510390354_4" function="internal">
        <lane id=":1510390354_4_0" index="0" speed="8.53" length="14.41" shape="1269.82,1454.89 1271.98,1458.33 1272.75,1461.64 1272.13,1464.84 1270.10,1467.92"/>
    </edge>
    <edge id=":1510390354_5" function="internal">
        <lane id=":1510390354_5_0" index="0" speed="3.65" length="4.67" shape="1269.82,1454.89 1269.96,1456.32 1269.59,1457.14 1268.72,1457.34 1267.34,1456.92"/>
    </edge>
    <edge id=":1510390354_6" function="internal">
        <lane id=":1510390354_6_0" index="0" speed="7.13" length="9.79" shape="1267.72,1465.77 1269.05,1463.72 1269.43,1461.56 1268.86,1459.30 1267.34,1456.92"/>
    </edge>
    <edge id=":1510390354_7" function="internal">
        <lane id=":1510390354_7_0" index="0" speed="25.00" length="14.44" shape="1267.72,1465.77 1277.48,1455.12"/>
    </edge>
    <edge id=":1510390354_8" function="internal">
        <lane id=":1510390354_8_0" index="0" speed="3.65" length="2.34" shape="1267.72,1465.77 1269.12,1465.42 1269.98,1465.66"/>
    </edge>
    <edge id=":1510390354_11" function="internal">
        <lane id=":1510390354_11_0" index="0" speed="3.65" length="2.34" shape="1269.98,1465.66 1270.31,1466.49 1270.10,1467.92"/>
    </edge>
    <edge id=":1780205726_0" function="internal">
        <lane id=":1780205726_0_0" index="0" speed="3.65" length="4.67" shape="1091.52,1477.14 1090.94,1475.82 1091.04,1474.93 1091.80,1474.47 1093.25,1474.44"/>
    </edge>
    <edge id=":1822196540_0" function="internal">
        <lane id=":1822196540_0_0" index="0" speed="3.65" length="4.67" shape="-0.04,456.73 -1.22,455.91 -1.60,455.10 -1.18,454.31 0.04,453.54"/>
    </edge>
    <edge id=":1946290229_0" function="internal">
        <lane id=":1946290229_0_0" index="0" speed="8.33" length="0.36" shape="1886.13,734.87 1886.12,734.76 1886.12,734.69 1886.10,734.62 1886.08,734.52"/>
    </edge>
    <edge id=":1946290229_1" function="internal">
        <lane id=":1946290229_1_0" index="0" speed="8.33" length="1.08" shape="1889.18,733.73 1889.26,734.04 1889.30,734.26 1889.32,734.48 1889.33,734.80"/>
    </edge>
    <edge id=":1962019147_0" function="internal">
        <lane id=":1962019147_0_0" index="0" speed="8.33" length="0.38" shape="819.41,708.01 819.31,708.06 819.25,708.10 819.19,708.15 819.10,708.22"/>
    </edge>
    <edge id=":1962019147_1" function="internal">
        <lane id=":1962019147_1_0" index="0" speed="8.33" length="1.13" shape="816.99,705.81 817.24,705.59 817.43,705.45 817.62,705.33 817.92,705.18"/>
    </edge>
    <edge id=":1962019211_0" function="internal">
        <lane id=":1962019211_0_0" index="0" speed="8.33" length="0.41" shape="1891.66,929.44 1891.59,929.35 1891.53,929.29 1891.47,929.23 1891.37,929.16"/>
    </edge>
    <edge id=":1962019211_1" function="internal">
        <lane id=":1962019211_1_0" index="0" speed="8.33" length="1.22" shape="1893.23,926.56 1893.53,926.78 1893.72,926.93 1893.89,927.11 1894.12,927.39"/>
    </edge>
    <edge id=":1962019231_0" function="internal">
        <lane id=":1962019231_0_0" index="0" speed="8.33" length="1.87" shape="639.90,948.04 639.39,947.83 639.05,947.65 638.75,947.42 638.35,947.04"/>
    </edge>
    <edge id=":1962019231_1" function="internal">
        <lane id=":1962019231_1_0" index="0" speed="8.33" length="0.62" shape="640.57,944.74 640.71,944.86 640.81,944.94 640.92,945.00 641.09,945.07"/>
    </edge>
    <edge id=":1962019327_0" function="internal">
        <lane id=":1962019327_0_0" index="0" speed="3.65" length="4.67" shape="1432.44,1168.96 1433.42,1167.90 1434.27,1167.63 1435.00,1168.15 1435.60,1169.46"/>
    </edge>
    <edge id=":1962019360_0" function="internal">
        <lane id=":1962019360_0_0" index="0" speed="5.56" length="2.08" shape="1425.51,1215.47 1425.32,1214.89 1425.26,1214.47 1425.31,1214.04 1425.42,1213.43"/>
    </edge>
    <edge id=":1962019360_1" function="internal">
        <lane id=":1962019360_1_0" index="0" speed="5.56" length="0.35" shape="1428.58,1213.93 1428.47,1214.26"/>
    </edge>
    <edge id=":1962019364_0" function="internal">
        <lane id=":1962019364_0_0" index="0" speed="5.47" length="9.24" shape="1430.62,1228.65 1429.29,1226.21 1427.82,1225.37 1426.20,1226.15 1424.45,1228.55"/>
    </edge>
    <edge id=":1962019364_1" function="internal">
        <lane id=":1962019364_1_0" index="0" speed="5.56" length="13.94" shape="1430.62,1228.65 1425.58,1215.65"/>
    </edge>
    <edge id=":1962019364_2" function="internal">
        <lane id=":1962019364_2_0" index="0" speed="3.65" length="2.34" shape="1430.62,1228.65 1430.93,1227.25 1431.53,1226.58"/>
    </edge>
    <edge id=":1962019364_9" function="internal">
        <lane id=":1962019364_9_0" index="0" speed="3.65" length="2.34" shape="1431.53,1226.58 1432.42,1226.67 1433.60,1227.50"/>
    </edge>
    <edge id=":1962019364_3" function="internal">
        <lane id=":1962019364_3_0" index="0" speed="5.56" length="13.99" shape="1428.55,1214.45 1433.60,1227.50"/>
    </edge>
    <edge id=":1962019364_4" function="internal">
        <lane id=":1962019364_4_0" index="0" speed="5.56" length="4.44" shape="1428.55,1214.45 1428.89,1216.87 1428.53,1218.84"/>
    </edge>
    <edge id=":1962019364_5" function="internal">
        <lane id=":1962019364_5_0" index="0" speed="3.65" length="2.34" shape="1428.55,1214.45 1428.26,1215.86 1427.66,1216.53"/>
    </edge>
    <edge id=":1962019364_10" function="internal">
        <lane id=":1962019364_10_0" index="0" speed="5.56" length="10.58" shape="1428.53,1218.84 1428.32,1220.03 1426.84,1223.92 1424.45,1228.55"/>
    </edge>
    <edge id=":1962019364_11" function="internal">
        <lane id=":1962019364_11_0" index="0" speed="3.65" length="2.34" shape="1427.66,1216.53 1426.77,1216.46 1425.58,1215.65"/>
    </edge>
    <edge id=":1962019364_6" function="internal">
        <lane id=":1962019364_6_0" index="0" speed="5.56" length="12.18" shape="1421.67,1226.96 1423.76,1223.01 1425.11,1219.80 1425.72,1217.35 1425.58,1215.65"/>
    </edge>
    <edge id=":1962019364_7" function="internal">
        <lane id=":1962019364_7_0" index="0" speed="5.56" length="17.90" shape="1421.67,1226.96 1425.03,1222.40 1428.14,1220.97 1431.00,1222.67 1433.60,1227.50"/>
    </edge>
    <edge id=":1962019364_8" function="internal">
        <lane id=":1962019364_8_0" index="0" speed="3.65" length="4.67" shape="1421.67,1226.96 1422.96,1226.31 1423.85,1226.36 1424.35,1227.11 1424.45,1228.55"/>
    </edge>
    <edge id=":1962019370_0" function="internal">
        <lane id=":1962019370_0_0" index="0" speed="5.56" length="0.76" shape="1424.08,1229.20 1423.97,1229.40 1423.91,1229.55 1423.88,1229.70 1423.87,1229.92"/>
    </edge>
    <edge id=":1962019370_1" function="internal">
        <lane id=":1962019370_1_0" index="0" speed="5.56" length="2.29" shape="1420.67,1229.78 1420.71,1229.11 1420.79,1228.65 1420.97,1228.21 1421.29,1227.62"/>
    </edge>
    <edge id=":1962019372_0" function="internal">
        <lane id=":1962019372_0_0" index="0" speed="5.56" length="4.95" shape="1432.72,1233.35 1432.03,1232.06 1431.59,1231.15 1431.22,1230.21 1430.69,1228.84"/>
    </edge>
    <edge id=":1962019372_1" function="internal">
        <lane id=":1962019372_1_0" index="0" speed="5.05" length="4.44" shape="1432.72,1233.35 1431.89,1231.19 1432.30,1230.01 1433.17,1229.91"/>
    </edge>
    <edge id=":1962019372_4" function="internal">
        <lane id=":1962019372_4_0" index="0" speed="5.05" length="3.82" shape="1433.17,1229.91 1433.97,1229.81 1436.88,1230.58"/>
    </edge>
    <edge id=":1962019372_2" function="internal">
        <lane id=":1962019372_2_0" index="0" speed="5.56" length="4.45" shape="1433.68,1227.68 1434.17,1228.63 1434.87,1229.42 1435.77,1230.07 1436.88,1230.58"/>
    </edge>
    <edge id=":1962019372_3" function="internal">
        <lane id=":1962019372_3_0" index="0" speed="3.65" length="2.34" shape="1433.68,1227.68 1433.36,1229.09 1432.76,1229.75"/>
    </edge>
    <edge id=":1962019372_5" function="internal">
        <lane id=":1962019372_5_0" index="0" speed="3.65" length="2.34" shape="1432.76,1229.75 1431.87,1229.67 1430.69,1228.84"/>
    </edge>
    <edge id=":1962019412_0" function="internal">
        <lane id=":1962019412_0_0" index="0" speed="5.56" length="3.27" shape="1532.06,1262.50 1533.02,1262.63 1533.68,1262.68 1534.34,1262.79 1535.27,1263.06"/>
    </edge>
    <edge id=":1962019437_0" function="internal">
        <lane id=":1962019437_0_0" index="0" speed="5.56" length="3.43" shape="1531.79,1281.59 1530.80,1281.31 1530.11,1281.16 1529.45,1280.94 1528.58,1280.44"/>
    </edge>
    <edge id=":1962019438_0" function="internal">
        <lane id=":1962019438_0_0" index="0" speed="13.89" length="0.29" shape="1432.72,1277.69 1432.82,1277.42"/>
    </edge>
    <edge id=":1962019441_0" function="internal">
        <lane id=":1962019441_0_0" index="0" speed="3.65" length="4.67" shape="1421.69,1278.67 1420.84,1279.83 1420.02,1280.20 1419.24,1279.76 1418.50,1278.53"/>
    </edge>
    <edge id=":1962019449_0" function="internal">
        <lane id=":1962019449_0_0" index="0" speed="11.11" length="3.48" shape="1726.22,1280.00 1726.66,1280.91 1726.82,1281.60 1726.90,1282.32 1727.08,1283.34"/>
    </edge>
    <edge id=":1962019451_0" function="internal">
        <lane id=":1962019451_0_0" index="0" speed="11.11" length="3.35" shape="1501.88,1297.75 1501.01,1297.27 1500.39,1296.97 1499.81,1296.63 1499.05,1295.99"/>
    </edge>
    <edge id=":1962019461_0" function="internal">
        <lane id=":1962019461_0_0" index="0" speed="11.11" length="3.22" shape="1723.63,1316.19 1723.36,1317.10 1723.11,1317.71 1722.82,1318.30 1722.43,1319.17"/>
    </edge>
    <edge id=":1962019462_0" function="internal">