<nodes>
	<node id="1962019461" x="542253.3609" y="4581255.2265" z="0.0000" type="priority" />
	<node id="1962019462" x="542258.1510" y="4581236.7805" z="0.0000" type="priority" />
	<node id="665884255" x="540694.7930" y="4580686.9837" z="0.0000" type="priority" />
	<node id="2702650830" x="541966.5619" y="4581174.1354" z="0.0000" type="priority" />
	<node id="3071810490" x="542141.8010" y="4581273.4172" z="0.0000" type="priority" />
	<node id="3005104365" x="542057.6277" y="4581216.4739" z="0.0000" type="priority" />
	<node id="2700041692" x="542591.5099" y="4581336.5307" z="0.0000" type="priority" />
	<node id="3005104363" x="542243.8293" y="4581280.9057" z="0.0000" type="priority" />
	<node id="2702650832" x="541968.7321" y="4581171.9165" z="0.0000" type="priority" />
	<node id="3005104362" x="542248.8480" y="4581266.2801" z="0.0000" type="priority" />
	<node id="3090048840" x="541266.2822" y="4581290.0833" z="0.0000" type="priority" />
	<node id="2702650837" x="542093.4026" y="4581244.7367" z="0.0000" type="priority" />
	<node id="2702650835" x="542012.8443" y="4581221.8207" z="0.0000" type="priority" />
	<node id="2699194647" x="542423.3644" y="4581206.6044" z="0.0000" type="priority" />
	<node id="2702650839" x="542089.1398" y="4581255.9584" z="0.0000" type="priority" />
	<node id="648172460" x="542402.4769" y="4580890.7045" z="0.0000" type="priority" />
	<node id="1104387730" x="541265.5098" y="4580923.4988" z="0.0000" type="priority" />
	<node id="665884268" x="540742.3466" y="4580814.0144" z="0.0000" type="priority" />
	<node id="1962019451" x="542031.4273" y="4581234.2629" z="0.0000" type="priority" />
	<node id="2824723435" x="542561.8611" y="4580869.2236" z="0.0000" type="priority" />
	<node id="2824723436" x="542547.5936" y="4580875.1794" z="0.0000" type="priority" />
	<node id="1962019211" x="542423.9110" y="4580867.5377" z="0.0000" type="priority" />
	<node id="2824723433" x="542547.1079" y="4580869.5922" z="0.0000" type="priority" />
	<node id="648172467" x="542571.1337" y="4580869.4113" z="0.0000" type="priority" />
	<node id="2824723434" x="542553.4259" y="4580887.3482" z="0.0000" type="priority" />
	<node id="2699194655" x="542438.7323" y="4581176.8185" z="0.0000" type="priority" />
	<node id="2824723439" x="542554.2024" y="4580893.2369" z="0.0000" type="priority" />
	<node id="2824723437" x="542561.6393" y="4580874.2293" z="0.0000" type="priority" />
	<node id="2824723438" x="542570.4978" y="4580954.8828" z="0.0000" type="priority" />
	<node id="2449510852" x="542488.3407" y="4581529.5129" z="0.0000" type="priority" />
	<node id="3090048830" x="541258.0407" y="4581340.9395" z="0.0000" type="priority" />
	<node id="2449510854" x="542503.6963" y="4581541.6599" z="0.0000" type="priority" />
	<node id="3090048831" x="541472.7587" y="4580924.6595" z="0.0000" type="priority" />
	<node id="1510388331" x="541723.8952" y="4581193.9837" z="0.0000" type="priority" />
	<node id="2699194657" x="542423.3319" y="4581195.0246" z="0.0000" type="priority" />
	<node id="2699983207" x="542484.5271" y="4581124.5849" z="0.0000" type="priority" />
	<node id="2699983205" x="542467.2305" y="4581085.3374" z="0.0000" type="priority" />
	<node id="2699055670" x="542179.8675" y="4581287.1388" z="0.0000" type="priority" />
	<node id="665884260" x="540741.1466" y="4580795.4339" z="0.0000" type="priority" />
	<node id="2699983202" x="542446.0049" y="4581167.2023" z="0.0000" type="priority" />
	<node id="2699983201" x="542444.1925" y="4581143.9993" z="0.0000" type="priority" />
	<node id="1962019327" x="541965.3022" y="4581108.6479" z="0.0000" type="priority" />
	<node id="1104387621" x="541399.9029" y="4581051.3953" z="0.0000" type="priority" />
	<node id="1962019449" x="542256.1069" y="4581220.2264" z="0.0000" type="priority" />
	<node id="2449510850" x="542468.6044" y="4581504.3841" z="0.0000" type="priority" />
	<node id="6061833826" x="541446.1481" y="4580806.6142" z="0.0000" type="priority" />
	<node id="665884237" x="540584.7993" y="4580587.4697" z="0.0000" type="priority" />
	<node id="6061833825" x="541475.4208" y="4580799.9427" z="0.0000" type="priority" />
	<node id="665884232" x="540570.8095" y="4580564.9430" z="0.0000" type="priority" />
	<node id="1962019441" x="541951.3735" y="4581218.0341" z="0.0000" type="priority" />
	<node id="6061833820" x="541393.1943" y="4581098.6519" z="0.0000" type="priority" />
	<node id="2699194665" x="542428.1945" y="4581204.2790" z="0.0000" type="priority" />
	<node id="6061833822" x="541514.2000" y="4580803.7396" z="0.0000" type="priority" />
	<node id="6061833821" x="541392.9266" y="4581063.5345" z="0.0000" type="priority" />
	<node id="3071810470" x="542258.2095" y="4580120.8856" z="0.0000" type="priority" />
	<node id="6061833824" x="541491.3529" y="4580798.1354" z="0.0000" type="priority" />
	<node id="3071810471" x="542251.7628" y="4580149.3693" z="0.0000" type="priority" />
	<node id="6061833823" x="541506.1537" y="4580799.6635" z="0.0000" type="priority" />
	<node id="3071810472" x="542241.5562" y="4580223.2054" z="0.0000" type="priority" />
	<node id="2699008657" x="542498.0801" y="4581367.2680" z="0.0000" type="priority" />
	<node id="3071810473" x="542241.9237" y="4580249.1088" z="0.0000" type="priority" />
	<node id="3071810474" x="542252.8505" y="4580264.0826" z="0.0000" type="priority" />
	<node id="3071810475" x="542274.8045" y="4580293.9642" z="0.0000" type="priority" />
	<node id="3071810476" x="542298.3711" y="4580324.0552" z="0.0000" type="priority" />
	<node id="3007356214" x="542274.8750" y="4581021.6968" z="0.0000" type="priority" />
	<node id="3071810478" x="542371.1437" y="4580854.9501" z="0.0000" type="priority" />
	<node id="3071810479" x="542320.6321" y="4580931.4816" z="0.0000" type="priority" />
	<node id="2449510848" x="542401.8634" y="4581465.7353" z="0.0000" type="priority" />
	<node id="3007356219" x="542369.9990" y="4581363.9645" z="0.0000" type="priority" />
	<node id="1962019437" x="542060.7430" y="4581218.5459" z="0.0000" type="priority" />
	<node id="1962019438" x="541965.5411" y="4581217.5610" z="0.0000" type="priority" />
	<node id="665884247" x="540685.8125" y="4580668.9701" z="0.0000" type="priority" />
	<node id="3059715597" x="542483.1451" y="4580999.4448" z="0.0000" type="priority" />
	<node id="3059715596" x="542480.1471" y="4580993.0546" z="0.0000" type="priority" />
	<node id="665884242" x="540621.4322" y="4580617.9058" z="0.0000" type="priority" />
	<node id="3059715598" x="542488.9916" y="4580996.3483" z="0.0000" type="priority" />
	<node id="3059715593" x="542491.7090" y="4580996.3975" z="0.0000" type="priority" />
	<node id="3059715592" x="542486.2958" y="4580996.8987" z="0.0000" type="priority" />
	<node id="3059715595" x="542480.3096" y="4581009.5533" z="0.0000" type="priority" />
	<node id="3059715594" x="542497.9393" y="4580999.1541" z="0.0000" type="priority" />
	<node id="2699194673" x="542390.0190" y="4581172.0260" z="0.0000" type="priority" />
	<node id="3071810480" x="542254.3666" y="4580965.1341" z="0.0000" type="priority" />
	<node id="3071810481" x="542242.2980" y="4580971.2143" z="0.0000" type="priority" />
	<node id="3059715591" x="542474.4684" y="4580987.4925" z="0.0000" type="priority" />
	<node id="3071810482" x="542234.4145" y="4580975.1984" z="0.0000" type="priority" />
	<node id="3059715590" x="542468.0103" y="4580977.9401" z="0.0000" type="priority" />
	<node id="3071810483" x="542210.6444" y="4580987.5387" z="0.0000" type="priority" />
	<node id="3005104369" x="542257.8208" y="4581227.4417" z="0.0000" type="priority" />
	<node id="2699055578" x="542336.2707" y="4581227.5443" z="0.0000" type="priority" />
	<node id="3071810484" x="542183.4495" y="4581002.1462" z="0.0000" type="priority" />
	<node id="3005104368" x="542108.7068" y="4581111.9777" z="0.0000" type="priority" />
	<node id="2699055579" x="542327.9428" y="4581233.1911" z="0.0000" type="priority" />
	<node id="3071810485" x="542166.1303" y="4581013.8802" z="0.0000" type="priority" />
	<node id="2699055576" x="542357.6611" y="4581213.0811" z="0.0000" type="priority" />
	<node id="3071810486" x="542149.5775" y="4581027.5617" z="0.0000" type="priority" />
	<node id="3005104366" x="542062.2024" y="4581203.3667" z="0.0000" type="priority" />
	<node id="2699055577" x="542343.2334" y="4581226.5747" z="0.0000" type="priority" />
	<node id="3071810487" x="542126.0856" y="4581051.0948" z="0.0000" type="priority" />
	<node id="3071810488" x="542103.8129" y="4581076.3670" z="0.0000" type="priority" />
	<node id="3068346836" x="542247.8592" y="4580978.3298" z="0.0000" type="priority" />
	<node id="3071810489" x="542023.4692" y="4581163.2077" z="0.0000" type="priority" />
	<node id="2699055570" x="542389.6517" y="4581181.9380" z="0.0000" type="priority" />
	<node id="2699055691" x="542394.1962" y="4581178.3786" z="0.0000" type="priority" />
	<node id="2699055571" x="542385.0117" y="4581191.7917" z="0.0000" type="priority" />
	<node id="2699055574" x="542370.8855" y="4581202.3228" z="0.0000" type="priority" />
	<node id="2699055575" x="542367.3092" y="4581207.6087" z="0.0000" type="priority" />
	<node id="2699055572" x="542379.0564" y="4581197.7965" z="0.0000" type="priority" />
	<node id="2699055573" x="542373.0526" y="4581199.2379" z="0.0000" type="priority" />
	<node id="2699055694" x="542370.4878" y="4581134.4865" z="0.0000" type="priority" />
	<node id="3059715589" x="542454.5320" y="4581089.0489" z="0.0000" type="priority" />
	<node id="665884298" x="540926.6314" y="4580910.7194" z="0.0000" type="priority" />
	<node id="3059715586" x="542465.9187" y="4581083.7311" z="0.0000" type="priority" />
	<node id="665884299" x="541022.6546" y="4580870.6952" z="0.0000" type="priority" />
	<node id="3059715585" x="542464.2847" y="4581082.8777" z="0.0000" type="priority" />
	<node id="3059715588" x="542469.7744" y="4581089.2936" z="0.0000" type="priority" />
	<node id="665884297" x="540894.4290" y="4580934.3960" z="0.0000" type="priority" />
	<node id="3059715587" x="542471.9669" y="4581093.2921" z="0.0000" type="priority" />
	<node id="3059715582" x="542442.6837" y="4581036.1112" z="0.0000" type="priority" />
	<node id="3059715581" x="542443.8219" y="4581033.0870" z="0.0000" type="priority" />
	<node id="2702650873" x="542515.5965" y="4580871.4611" z="0.0000" type="priority" />
	<node id="3059715584" x="542481.5999" y="4581006.2635" z="0.0000" type="priority" />
	<node id="3059715583" x="542448.6181" y="4581055.1195" z="0.0000" type="priority" />
	<node id="2702650871" x="542580.3455" y="4580869.9761" z="0.0000" type="priority" />
	<node id="2699906718" x="542546.8214" y="4581439.6845" z="0.0000" type="priority" />
	<node id="2699065154" x="542258.9885" y="4580978.4280" z="0.0000" type="priority" />
	<node id="3059715580" x="542451.8772" y="4581065.4746" z="0.0000" type="priority" />
	<node id="2702650875" x="542671.9167" y="4580904.6648" z="0.0000" type="priority" />
	<node id="2699055589" x="542253.2131" y="4581297.7801" z="0.0000" type="priority" />
	<node id="3062177310" x="542393.6581" y="4581461.8904" z="0.0000" type="priority" />
	<node id="1104387537" x="541326.8751" y="4580666.1577" z="0.0000" type="priority" />
	<node id="2699055587" x="542256.1514" y="4581294.3333" z="0.0000" type="priority" />
	<node id="1104417566" x="541413.2771" y="4581053.7366" z="0.0000" type="priority" />
	<node id="1104387539" x="541840.3202" y="4581362.8741" z="0.0000" type="priority" />
	<node id="2699055581" x="542306.3934" y="4581254.8476" z="0.0000" type="priority" />
	<node id="665884295" x="540865.3985" y="4580936.8745" z="0.0000" type="priority" />
	<node id="2699055582" x="542293.3176" y="4581267.4055" z="0.0000" type="priority" />
	<node id="1510386127" x="541541.1020" y="4581032.6969" z="0.0000" type="priority" />
	<node id="2699055580" x="542317.3370" y="4581243.7428" z="0.0000" type="priority" />
	<node id="2699055585" x="542270.6284" y="4581292.4083" z="0.0000" type="priority" />
	<node id="2699055586" x="542263.0055" y="4581291.9086" z="0.0000" type="priority" />
	<node id="2699055583" x="542282.8777" y="4581288.2276" z="0.0000" type="priority" />
	<node id="2699055584" x="542273.6775" y="4581288.6181" z="0.0000" type="priority" />
	<node id="3059715579" x="542443.9765" y="4581136.6262" z="0.0000" type="priority" />
	<node id="1962019370" x="541953.5833" y="4581168.5203" z="0.0000" type="priority" />
	<node id="3059715578" x="542484.4105" y="4581198.6687" z="0.0000" type="priority" />
	<node id="1962019372" x="541964.5180" y="4581170.4155" z="0.0000" type="priority" />
	<node id="1962019494" x="542229.0605" y="4581304.1895" z="0.0000" type="priority" />
	<node id="3059715575" x="542449.3411" y="4581178.6570" z="0.0000" type="priority" />
	<node id="3059715574" x="542425.1971" y="4581206.3597" z="0.0000" type="priority" />
	<node id="3059715577" x="542454.4218" y="4581182.0729" z="0.0000" type="priority" />
	<node id="665884186" x="540577.3505" y="4580425.7485" z="0.0000" type="priority" />
	<node id="3059715576" x="542442.2117" y="4581176.6724" z="0.0000" type="priority" />
	<node id="3059715571" x="542429.3520" y="4581200.8108" z="0.0000" type="priority" />
	<node id="2702650863" x="542242.7059" y="4581264.1904" z="0.0000" type="priority" />
	<node id="3059715570" x="542429.0533" y="4581198.9772" z="0.0000" type="priority" />
	<node id="3059715573" x="542426.8658" y="4581205.5590" z="0.0000" type="priority" />
	<node id="2702650861" x="542238.6887" y="4581279.1438" z="0.0000" type="priority" />
	<node id="3059715572" x="542429.0570" y="4581202.6409" z="0.0000" type="priority" />
	<node id="2702650865" x="542234.0487" y="4581293.3607" z="0.0000" type="priority" />
	<node id="3007356230" x="542308.3853" y="4581419.2483" z="0.0000" type="priority" />
	<node id="1104387547" x="542004.6260" y="4581182.6270" z="0.0000" type="priority" />
	<node id="3007356221" x="542422.0563" y="4581214.3793" z="0.0000" type="priority" />
	<node id="2699055598" x="542268.3157" y="4581040.9207" z="0.0000" type="priority" />
	<node id="2702650869" x="542418.0871" y="4580892.4723" z="0.0000" type="priority" />
	<node id="3007356222" x="542439.4753" y="4581214.1482" z="0.0000" type="priority" />
	<node id="2699055599" x="542263.9788" y="4581049.0111" z="0.0000" type="priority" />
	<node id="3007356223" x="542422.9993" y="4581188.9831" z="0.0000" type="priority" />
	<node id="3007356224" x="542428.5836" y="4581182.0881" z="0.0000" type="priority" />
	<node id="3007356225" x="542425.1700" y="4581185.2877" z="0.0000" type="priority" />
	<node id="3007356226" x="542422.6899" y="4581191.8457" z="0.0000" type="priority" />
	<node id="3007356227" x="542455.1714" y="4581382.4040" z="0.0000" type="priority" />
	<node id="1510386117" x="541531.9614" y="4581031.3900" z="0.0000" type="priority" />
	<node id="665884180" x="540548.4707" y="4580394.9674" z="0.0000" type="priority" />
	<node id="2699055596" x="542273.1362" y="4581025.9166" z="0.0000" type="priority" />
	<node id="1104387663" x="541730.2049" y="4581483.5519" z="0.0000" type="priority" />
	<node id="3059715568" x="542426.8545" y="4581196.0556" z="0.0000" type="priority" />
	<node id="3059715567" x="542425.1785" y="4581195.2575" z="0.0000" type="priority" />
	<node id="1962019360" x="541958.1412" y="4581153.9697" z="0.0000" type="priority" />
	<node id="665884279" x="540782.7960" y="4580892.5782" z="0.0000" type="priority" />
	<node id="3059715569" x="542428.1933" y="4581197.3401" z="0.0000" type="priority" />
	<node id="3059715564" x="542418.1853" y="4581198.5694" z="0.0000" type="priority" />
	<node id="3059715563" x="542417.7483" y="4581200.3765" z="0.0000" type="priority" />
	<node id="1962019364" x="541959.6489" y="4581157.8641" z="0.0000" type="priority" />
	<node id="3059715566" x="542421.7834" y="4581195.2931" z="0.0000" type="priority" />
	<node id="3059715565" x="542420.3663" y="4581195.9621" z="0.0000" type="priority" />
	<node id="3059715560" x="542419.9017" y="4581205.3295" z="0.0000" type="priority" />
	<node id="3059715562" x="542417.9047" y="4581202.2315" z="0.0000" type="priority" />
	<node id="2702650850" x="542145.6173" y="4581262.7925" z="0.0000" type="priority" />
	<node id="3059715561" x="542418.6556" y="4581203.9456" z="0.0000" type="priority" />
	<node id="2702650856" x="542196.9380" y="4581264.8675" z="0.0000" type="priority" />
	<node id="2699906618" x="542465.7223" y="4581248.5298" z="0.0000" type="priority" />
	<node id="2702650854" x="542183.9206" y="4581276.0381" z="0.0000" type="priority" />
	<node id="2702650858" x="542192.9267" y="4581247.2361" z="0.0000" type="priority" />
	<node id="1104387638" x="541640.5202" y="4581602.7390" z="0.0000" type="priority" />
	<node id="2699059722" x="542059.6443" y="4581204.7063" z="0.0000" type="priority" />
	<node id="2699059721" x="542056.3627" y="4581214.0019" z="0.0000" type="priority" />
	<node id="1510389419" x="541773.2452" y="4581326.2499" z="0.0000" type="priority" />
	<node id="3059715559" x="542421.5269" y="4581206.2494" z="0.0000" type="priority" />
	<node id="665884287" x="540809.5741" y="4580915.8879" z="0.0000" type="priority" />
	<node id="1962019231" x="541171.1903" y="4580885.7592" z="0.0000" type="priority" />
	<node id="2702650841" x="542105.1650" y="4581233.6807" z="0.0000" type="priority" />
	<node id="3059715670" x="542537.3456" y="4581441.4719" z="0.0000" type="priority" />
	<node id="2699008630" x="542437.5476" y="4581357.7096" z="0.0000" type="priority" />
	<node id="2699906609" x="542487.3666" y="4581324.8617" z="0.0000" type="priority" />
	<node id="2702650843" x="542101.8799" y="4581216.2202" z="0.0000" type="priority" />
	<node id="2699906615" x="542476.4760" y="4581274.1277" z="0.0000" type="priority" />
	<node id="1510389401" x="541765.7559" y="4581312.7176" z="0.0000" type="priority" />
	<node id="2702650848" x="542150.1543" y="4581248.9967" z="0.0000" type="priority" />
	<node id="1510387226" x="541690.6692" y="4581123.5383" z="0.0000" type="priority" />
	<node id="2702650846" x="542155.1478" y="4581234.3599" z="0.0000" type="priority" />
	<node id="2699906611" x="542480.6140" y="4581288.5847" z="0.0000" type="priority" />
	<node id="1510388437" x="541725.7003" y="4581214.4997" z="0.0000" type="priority" />
	<node id="665880975" x="541259.8399" y="4581380.3289" z="0.0000" type="priority" />
	<node id="665880976" x="541260.8888" y="4581310.6581" z="0.0000" type="priority" />
	<node id="665880977" x="541275.0497" y="4581268.7506" z="0.0000" type="priority" />
	<node id="2700085555" x="542461.7430" y="4581082.8184" z="0.0000" type="priority" />
	<node id="665880978" x="541467.8746" y="4580934.9898" z="0.0000" type="priority" />
	<node id="665880974" x="541259.7009" y="4581453.2023" z="0.0000" type="priority" />
	<node id="2700085316" x="542461.1129" y="4581186.0867" z="0.0000" type="priority" />
	<node id="665884097" x="540797.0745" y="4580905.1706" z="0.0000" type="priority" />
	<node id="1104387574" x="541999.6106" y="4581179.4450" z="0.0000" type="priority" />
	<node id="665880980" x="541475.4631" y="4580897.7524" z="0.0000" type="priority" />
	<node id="3066899684" x="541710.2013" y="4581507.2841" z="0.0000" type="priority" />
	<node id="3066899683" x="541693.5812" y="4581530.1032" z="0.0000" type="priority" />
	<node id="3066899688" x="541917.2894" y="4581278.9762" z="0.0000" type="priority" />
	<node id="3066899687" x="541789.6572" y="4581417.9369" z="0.0000" type="priority" />
	<node id="3066899686" x="541761.7970" y="4581448.3071" z="0.0000" type="priority" />
	<node id="3066899685" x="541720.8469" y="4581493.9674" z="0.0000" type="priority" />
	<node id="3066899689" x="541963.7055" y="4581229.8626" z="0.0000" type="priority" />
	<node id="665880979" x="541476.2484" y="4580912.4894" z="0.0000" type="priority" />
	<node id="5921493845" x="542385.9558" y="4580548.4852" z="0.0000" type="priority" />
	<node id="648170896" x="542219.6484" y="4580870.1752" z="0.0000" type="priority" />
	<node id="648170897" x="542259.6709" y="4580874.3053" z="0.0000" type="priority" />
	<node id="648170898" x="542286.2133" y="4580865.5784" z="0.0000" type="priority" />
	<node id="648170894" x="542193.7198" y="4580849.6074" z="0.0000" type="priority" />
	<node id="2824723489" x="542677.1974" y="4580906.8053" z="0.0000" type="priority" />
	<node id="2700085337" x="542480.5310" y="4581114.4474" z="0.0000" type="priority" />
	<node id="648170899" x="542308.8398" y="4580861.5805" z="0.0000" type="priority" />
	<node id="3071810511" x="542600.4733" y="4581131.7492" z="0.0000" type="priority" />
	<node id="3071810512" x="542593.8111" y="4581122.8283" z="0.0000" type="priority" />
	<node id="3071810513" x="542582.2732" y="4581105.4856" z="0.0000" type="priority" />
	<node id="3071810514" x="542569.7117" y="4581087.2932" z="0.0000" type="priority" />
	<node id="665884196" x="540568.8480" y="4580546.3582" z="0.0000" type="priority" />
	<node id="3071810515" x="542548.2695" y="4581057.7466" z="0.0000" type="priority" />
	<node id="3071810516" x="542526.8165" y="4581031.4308" z="0.0000" type="priority" />
	<node id="3071810517" x="542503.6681" y="4581006.1487" z="0.0000" type="priority" />
	<node id="665884191" x="540579.2417" y="4580494.2478" z="0.0000" type="priority" />
	<node id="3071810518" x="542470.8887" y="4580874.8849" z="0.0000" type="priority" />
	<node id="3071810519" x="542461.2011" y="4580875.5942" z="0.0000" type="priority" />
	<node id="2700751859" x="542392.4665" y="4580895.1312" z="0.0000" type="priority" />
	<node id="2700085469" x="542444.2664" y="4581131.3877" z="0.0000" type="priority" />
	<node id="3071810520" x="542434.1497" y="4580879.8100" z="0.0000" type="priority" />
	<node id="3071810521" x="542420.1511" y="4580884.1467" z="0.0000" type="priority" />
	<node id="3071810522" x="542414.9813" y="4580885.9039" z="0.0000" type="priority" />
	<node id="3071810523" x="542409.5854" y="4580887.7264" z="0.0000" type="priority" />
	<node id="1962019147" x="541349.6093" y="4580646.2037" z="0.0000" type="priority" />
	<node id="1104387680" x="541319.6624" y="4580992.5293" z="0.0000" type="priority" />
	<node id="665881627" x="541545.8622" y="4581042.5162" z="0.0000" type="priority" />
	<node id="3056577777" x="542401.1342" y="4581060.1594" z="0.0000" type="priority" />
	<node id="3061132031" x="541949.5558" y="4581435.2475" z="0.0000" type="priority" />
	<node id="3061132032" x="541957.0472" y="4581431.0166" z="0.0000" type="priority" />
	<node id="3061132030" x="541931.4145" y="4581437.5739" z="0.0000" type="priority" />
	<node id="1946290229" x="542418.9983" y="4580673.9103" z="0.0000" type="priority" />
	<node id="3056577775" x="542340.4755" y="4581090.3467" z="0.0000" type="priority" />
	<node id="3056577776" x="542397.4470" y="4581058.6612" z="0.0000" type="priority" />
	<node id="665881636" x="541593.6546" y="4581129.3202" z="0.0000" type="priority" />
	<node id="2699327229" x="542445.9474" y="4581177.0273" z="0.0000" type="priority" />
	<node id="3056577774" x="542400.3416" y="4581184.1988" z="0.0000" type="priority" />
	<node id="665881638" x="541654.0571" y="4581138.7264" z="0.0000" type="priority" />
	<node id="665881631" x="541559.2609" y="4581123.6939" z="0.0000" type="priority" />
	<node id="665881628" x="541545.8928" y="4581061.9673" z="0.0000" type="priority" />
	<node id="3071810466" x="542418.5796" y="4579939.4369" z="0.0000" type="priority" />
	<node id="3056577769" x="542357.3266" y="4580912.6448" z="0.0000" type="priority" />
	<node id="665881629" x="541543.1216" y="4581104.8610" z="0.0000" type="priority" />
	<node id="3071810467" x="542374.5310" y="4579962.1718" z="0.0000" type="priority" />
	<node id="3071810468" x="542345.8545" y="4579994.9219" z="0.0000" type="priority" />
	<node id="3071810469" x="542288.3022" y="4580076.0532" z="0.0000" type="priority" />
	<node id="1510389906" x="541791.2753" y="4581375.1587" z="0.0000" type="priority" />
	<node id="3066899691" x="541969.0554" y="4581208.4998" z="0.0000" type="priority" />
	<node id="2824723442" x="542568.4166" y="4580947.5987" z="0.0000" type="priority" />
	<node id="3066899690" x="541961.2764" y="4581227.7058" z="0.0000" type="priority" />
	<node id="2824723441" x="542566.7445" y="4580943.2701" z="0.0000" type="priority" />
	<node id="3066899695" x="541959.9366" y="4581232.3721" z="0.0000" type="priority" />
	<node id="3066899694" x="541970.1919" y="4581205.7309" z="0.0000" type="priority" />
	<node id="3066899693" x="541985.7304" y="4581219.7762" z="0.0000" type="priority" />
	<node id="3066899692" x="541982.2597" y="4581221.3104" z="0.0000" type="priority" />
	<node id="3066899699" x="541714.3795" y="4581501.9125" z="0.0000" type="priority" />
	<node id="1104417615" x="541475.4287" y="4581051.3498" z="0.0000" type="priority" />
	<node id="3066899698" x="541963.6218" y="4581222.6680" z="0.0000" type="priority" />
	<node id="3066899697" x="541968.3633" y="4581226.9364" z="0.0000" type="priority" />
	<node id="3066899696" x="541959.1548" y="4581231.6348" z="0.0000" type="priority" />
	<node id="1510387518" x="541707.0640" y="4581151.6544" z="0.0000" type="priority" />
	<node id="1510388605" x="541724.1817" y="4581238.6269" z="0.0000" type="priority" />
	<node id="2824723454" x="542646.1139" y="4580894.2323" z="0.0000" type="priority" />
	<node id="2700751897" x="542454.9851" y="4581078.7932" z="0.0000" type="priority" />
	<node id="2824723458" x="542659.5614" y="4580899.7293" z="0.0000" type="priority" />
	<node id="3066900180" x="541717.8326" y="4581497.6026" z="0.0000" type="priority" />
	<node id="3010189025" x="540971.5456" y="4580885.3606" z="0.0000" type="priority" />
	<node id="1510386651" x="541443.9607" y="4581054.5892" z="0.0000" type="priority" />
	<node id="1780205726" x="541623.6621" y="4581415.2274" z="0.0000" type="priority" />
	<node id="648170830" x="542389.2065" y="4580556.0425" z="0.0000" type="priority" />
	<node id="2700751903" x="542434.4679" y="4581178.2257" z="0.0000" type="priority" />
	<node id="3059355134" x="542484.5931" y="4581305.8719" z="0.0000" type="priority" />
	<node id="3061132349" x="542085.9177" y="4581411.9355" z="0.0000" type="priority" />
	<node id="648170836" x="542355.8335" y="4580478.3991" z="0.0000" type="priority" />
	<node id="3061132354" x="542047.6816" y="4581338.1953" z="0.0000" type="priority" />
	<node id="3061132355" x="542057.6717" y="4581332.8022" z="0.0000" type="priority" />
	<node id="3061132352" x="541973.7001" y="4581437.3524" z="0.0000" type="priority" />
	<node id="3061132353" x="542051.7228" y="4581349.2987" z="0.0000" type="priority" />
	<node id="3061132356" x="542073.1244" y="4581328.4177" z="0.0000" type="priority" />
	<node id="2700751905" x="542444.5941" y="4581045.4481" z="0.0000" type="priority" />
	<node id="3061132350" x="542019.1184" y="4581416.0220" z="0.0000" type="priority" />
	<node id="3061132351" x="541989.9809" y="4581424.2241" z="0.0000" type="priority" />
	<node id="2700751907" x="542268.1629" y="4580995.4345" z="0.0000" type="priority" />
	<node id="2700751912" x="542283.2077" y="4581013.8185" z="0.0000" type="priority" />
	<node id="648170845" x="542314.2440" y="4580352.6802" z="0.0000" type="priority" />
	<node id="3055140197" x="541632.7994" y="4581612.0315" z="0.0000" type="priority" />
	<node id="3061132002" x="541937.1862" y="4581292.7025" z="0.0000" type="priority" />
	<node id="3061132003" x="541957.1331" y="4581286.2011" z="0.0000" type="priority" />
	<node id="3061132000" x="541922.3510" y="4581308.8590" z="0.0000" type="priority" />
	<node id="3061132001" x="541928.7463" y="4581300.4362" z="0.0000" type="priority" />
	<node id="3061132006" x="542083.7796" y="4581315.0460" z="0.0000" type="priority" />
	<node id="3061132369" x="542154.6540" y="4581340.8152" z="0.0000" type="priority" />
	<node id="3061132007" x="542066.0483" y="4581308.6260" z="0.0000" type="priority" />
	<node id="3061132004" x="541975.4842" y="4581286.6959" z="0.0000" type="priority" />
	<node id="3061132005" x="542012.8450" y="4581292.3636" z="0.0000" type="priority" />
	<node id="3061132368" x="542141.4893" y="4581344.2691" z="0.0000" type="priority" />
	<node id="3059355133" x="542494.6465" y="4581359.6096" z="0.0000" type="priority" />
	<node id="2700751918" x="542324.5659" y="4581068.3160" z="0.0000" type="priority" />
	<node id="665881641" x="541682.2054" y="4581125.2549" z="0.0000" type="priority" />
	<node id="3007358081" x="542461.1701" y="4581497.4017" z="0.0000" type="priority" />
	<node id="3007358080" x="542451.3529" y="4581490.4053" z="0.0000" type="priority" />
	<node id="2699343087" x="542508.9740" y="4581212.1131" z="0.0000" type="priority" />
	<node id="2699343089" x="542545.1586" y="4581247.2194" z="0.0000" type="priority" />
	<node id="3061132008" x="542053.4751" y="4581305.2446" z="0.0000" type="priority" />
	<node id="2699343088" x="542532.0277" y="4581229.1902" z="0.0000" type="priority" />
	<node id="3061132009" x="542092.9310" y="4581320.1617" z="0.0000" type="priority" />
	<node id="648170814" x="542408.7970" y="4580856.6913" z="0.0000" type="priority" />
	<node id="2699244762" x="542009.8033" y="4581170.8555" z="0.0000" type="priority" />
	<node id="2699343090" x="542570.3119" y="4581294.0182" z="0.0000" type="priority" />
	<node id="3061132013" x="542237.3770" y="4581392.2889" z="0.0000" type="priority" />
	<node id="3061132014" x="542293.2065" y="4581411.0885" z="0.0000" type="priority" />
	<node id="3007358079" x="542527.2823" y="4581547.6380" z="0.0000" type="priority" />
	<node id="2699244764" x="541977.3437" y="4581174.9972" z="0.0000" type="priority" />
	<node id="2699343092" x="542588.5198" y="4581330.2627" z="0.0000" type="priority" />
	<node id="3061132011" x="542218.8701" y="4581385.5642" z="0.0000" type="priority" />
	<node id="2700085617" x="542477.8514" y="4581012.3699" z="0.0000" type="priority" />
	<node id="3061132374" x="542213.2364" y="4581382.3451" z="0.0000" type="priority" />
	<node id="2699244763" x="541993.8919" y="4581177.8686" z="0.0000" type="priority" />