<edges>
	<edge id="302479831_3067359666_1104387663_3067359666" from="3067359666" to="1104387703" numLanes="1" speed="25.00" />
	<edge id="302479831_3067359666_1104387663_1104387703" from="1104387703" to="3067359663" numLanes="1" speed="25.00" />
	<edge id="302479831_3067359666_1104387663_3067359663" from="3067359663" to="2700783832" numLanes="1" speed="25.00" />
	<edge id="302479831_3067359666_1104387663_2700783832" from="2700783832" to="3055140197" numLanes="1" speed="25.00" />
	<edge id="302479831_3067359666_1104387663_3055140197" from="3055140197" to="1104387638" numLanes="1" speed="25.00" />
	<edge id="302479831_3067359666_1104387663_1104387638" from="1104387638" to="2700783822" numLanes="1" speed="25.00" />
	<edge id="302479831_3067359666_1104387663_2700783822" from="2700783822" to="3066899683" numLanes="1" speed="25.00" />
	<edge id="302479831_3067359666_1104387663_3066899683" from="3066899683" to="3066899684" numLanes="1" speed="25.00" />
	<edge id="302479831_3067359666_1104387663_3066899684" from="3066899684" to="3066899699" numLanes="1" speed="25.00" />
	<edge id="302479831_3067359666_1104387663_3066899699" from="3066899699" to="3066900180" numLanes="1" speed="25.00" />
	<edge id="302479831_3067359666_1104387663_3066900180" from="3066900180" to="3066899685" numLanes="1" speed="25.00" />
	<edge id="302479831_3067359666_1104387663_3066899685" from="3066899685" to="1104387663" numLanes="1" speed="25.00" />
	<edge id="95200090_665880974_665880975_665880974" from="665880974" to="665880975" numLanes="1" speed="8.33" />
	<edge id="301819660_2699983196_2699327229_2699983196" from="2699983196" to="3059715589" numLanes="1" speed="8.33" />
	<edge id="301819660_2699983196_2699327229_3059715589" from="3059715589" to="2699983197" numLanes="1" speed="8.33" />
	<edge id="301819660_2699983196_2699327229_2699983197" from="2699983197" to="2699983199" numLanes="1" speed="8.33" />
	<edge id="301819660_2699983196_2699327229_2699983199" from="2699983199" to="2700085469" numLanes="1" speed="8.33" />
	<edge id="301819660_2699983196_2699327229_2700085469" from="2700085469" to="3059715579" numLanes="1" speed="8.33" />
	<edge id="301819660_2699983196_2699327229_3059715579" from="3059715579" to="2699983201" numLanes="1" speed="8.33" />
	<edge id="301819660_2699983196_2699327229_2699983201" from="2699983201" to="2699983202" numLanes="1" speed="8.33" />
	<edge id="301819660_2699983196_2699327229_2699983202" from="2699983202" to="2699327229" numLanes="1" speed="8.33" />
	<edge id="264239352_2699055700_2699055701_2699055700" from="2699055700" to="2700751907" numLanes="1" speed="13.89" />
	<edge id="264239352_2699055700_2699055701_2700751907" from="2700751907" to="2699055701" numLanes="1" speed="13.89" />
	<edge id="301937561_3061132133_3061132009_3061132133" from="3061132133" to="3061132352" numLanes="1" speed="8.33" />
	<edge id="301937561_3061132133_3061132009_3061132352" from="3061132352" to="3061132351" numLanes="1" speed="8.33" />
	<edge id="301937561_3061132133_3061132009_3061132351" from="3061132351" to="3061132350" numLanes="1" speed="8.33" />
	<edge id="301937561_3061132133_3061132009_3061132350" from="3061132350" to="3061132349" numLanes="1" speed="8.33" />
	<edge id="301937561_3061132133_3061132009_3061132349" from="3061132349" to="3061132348" numLanes="1" speed="8.33" />
	<edge id="301937561_3061132133_3061132009_3061132348" from="3061132348" to="3061132347" numLanes="1" speed="8.33" />
	<edge id="301937561_3061132133_3061132009_3061132347" from="3061132347" to="3061132346" numLanes="1" speed="8.33" />
	<edge id="301937561_3061132133_3061132009_3061132346" from="3061132346" to="3061132345" numLanes="1" speed="8.33" />
	<edge id="301937561_3061132133_3061132009_3061132345" from="3061132345" to="3061132344" numLanes="1" speed="8.33" />
	<edge id="301937561_3061132133_3061132009_3061132344" from="3061132344" to="3061132343" numLanes="1" speed="8.33" />
	<edge id="301937561_3061132133_3061132009_3061132343" from="3061132343" to="3061132353" numLanes="1" speed="8.33" />
	<edge id="301937561_3061132133_3061132009_3061132353" from="3061132353" to="3061132354" numLanes="1" speed="8.33" />
	<edge id="301937561_3061132133_3061132009_3061132354" from="3061132354" to="3061132355" numLanes="1" speed="8.33" />
	<edge id="301937561_3061132133_3061132009_3061132355" from="3061132355" to="3061132356" numLanes="1" speed="8.33" />
	<edge id="301937561_3061132133_3061132009_3061132356" from="3061132356" to="3061132009" numLanes="1" speed="8.33" />
	<edge id="302569718_3059715664_2699194665_3059715664" from="3059715664" to="3059355133" numLanes="1" speed="8.33" />
	<edge id="302569718_3059715664_2699194665_3059355133" from="3059355133" to="1962019522" numLanes="1" speed="8.33" />
	<edge id="302569718_3059715664_2699194665_1962019522" from="1962019522" to="2699906609" numLanes="1" speed="8.33" />
	<edge id="302569718_3059715664_2699194665_2699906609" from="2699906609" to="3059355134" numLanes="1" speed="8.33" />
	<edge id="302569718_3059715664_2699194665_3059355134" from="3059355134" to="2699906611" numLanes="1" speed="8.33" />
	<edge id="302569718_3059715664_2699194665_2699906611" from="2699906611" to="2699906615" numLanes="1" speed="8.33" />
	<edge id="302569718_3059715664_2699194665_2699906615" from="2699906615" to="3059715650" numLanes="1" speed="8.33" />
	<edge id="302569718_3059715664_2699194665_3059715650" from="3059715650" to="2699906618" numLanes="1" speed="8.33" />
	<edge id="302569718_3059715664_2699194665_2699906618" from="2699906618" to="2699906636" numLanes="1" speed="8.33" />
	<edge id="302569718_3059715664_2699194665_2699906636" from="2699906636" to="3007356222" numLanes="1" speed="8.33" />
	<edge id="302569718_3059715664_2699194665_3007356222" from="3007356222" to="2699194665" numLanes="1" speed="8.33" />
	<edge id="301937571_3061132374_3061132368_3061132374" from="3061132374" to="3061132373" numLanes="1" speed="8.33" />
	<edge id="301937571_3061132374_3061132368_3061132373" from="3061132373" to="3061132372" numLanes="1" speed="8.33" />
	<edge id="301937571_3061132374_3061132368_3061132372" from="3061132372" to="3061132371" numLanes="1" speed="8.33" />
	<edge id="301937571_3061132374_3061132368_3061132371" from="3061132371" to="3061132370" numLanes="1" speed="8.33" />
	<edge id="301937571_3061132374_3061132368_3061132370" from="3061132370" to="3061132369" numLanes="1" speed="8.33" />
	<edge id="301937571_3061132374_3061132368_3061132369" from="3061132369" to="3061132368" numLanes="1" speed="8.33" />
	<edge id="50823641_3071810489_3071810488_3071810489" from="3071810489" to="3071810488" numLanes="1" speed="13.89" />
	<edge id="264234601_2699055700_3007356214_2699055700" from="2699055700" to="3007356214" numLanes="1" speed="5.56" />
	<edge id="185559053_1962019654_3007356230_1962019654" from="1962019654" to="3007358079" numLanes="1" speed="8.33" />
	<edge id="185559053_1962019654_3007356230_3007358079" from="3007358079" to="3007358077" numLanes="1" speed="8.33" />
	<edge id="185559053_1962019654_3007356230_3007358077" from="3007358077" to="2449510854" numLanes="1" speed="8.33" />
	<edge id="185559053_1962019654_3007356230_2449510854" from="2449510854" to="3007358076" numLanes="1" speed="8.33" />
	<edge id="185559053_1962019654_3007356230_3007358076" from="3007358076" to="2449510852" numLanes="1" speed="8.33" />
	<edge id="185559053_1962019654_3007356230_2449510852" from="2449510852" to="2449510850" numLanes="1" speed="8.33" />
	<edge id="185559053_1962019654_3007356230_2449510850" from="2449510850" to="3007358081" numLanes="1" speed="8.33" />
	<edge id="185559053_1962019654_3007356230_3007358081" from="3007358081" to="3007358080" numLanes="1" speed="8.33" />
	<edge id="185559053_1962019654_3007356230_3007358080" from="3007358080" to="2449510848" numLanes="1" speed="8.33" />
	<edge id="185559053_1962019654_3007356230_2449510848" from="2449510848" to="3062177310" numLanes="1" speed="8.33" />
	<edge id="185559053_1962019654_3007356230_3062177310" from="3062177310" to="1962019625" numLanes="1" speed="8.33" />
	<edge id="185559053_1962019654_3007356230_1962019625" from="1962019625" to="3007356230" numLanes="1" speed="8.33" />
	<edge id="185559160_2699244759_2699148434_2699244759" from="2699244759" to="2699148431" numLanes="1" speed="11.11" />
	<edge id="185559160_2699244759_2699148434_2699148431" from="2699148431" to="3005104393" numLanes="1" speed="11.11" />
	<edge id="185559160_2699244759_2699148434_3005104393" from="3005104393" to="3005104394" numLanes="1" speed="11.11" />
	<edge id="185559160_2699244759_2699148434_3005104394" from="3005104394" to="3005104397" numLanes="1" speed="11.11" />
	<edge id="185559160_2699244759_2699148434_3005104397" from="3005104397" to="2699148434" numLanes="1" speed="11.11" />
	<edge id="301819657_2699194647_2700751937_2699194647" from="2699194647" to="3059715559" numLanes="1" speed="13.89" />
	<edge id="301819657_2699194647_2700751937_3059715559" from="3059715559" to="3059715560" numLanes="1" speed="13.89" />
	<edge id="301819657_2699194647_2700751937_3059715560" from="3059715560" to="3059715561" numLanes="1" speed="13.89" />
	<edge id="301819657_2699194647_2700751937_3059715561" from="3059715561" to="3059715562" numLanes="1" speed="13.89" />
	<edge id="301819657_2699194647_2700751937_3059715562" from="3059715562" to="3059715563" numLanes="1" speed="13.89" />
	<edge id="301819657_2699194647_2700751937_3059715563" from="3059715563" to="3059715564" numLanes="1" speed="13.89" />
	<edge id="301819657_2699194647_2700751937_3059715564" from="3059715564" to="2700751937" numLanes="1" speed="13.89" />
	<edge id="137729140_1510388605_665881636_1510388605" from="1510388605" to="1510388437" numLanes="1" speed="8.33" />
	<edge id="137729140_1510388605_665881636_1510388437" from="1510388437" to="1510388331" numLanes="1" speed="8.33" />
	<edge id="137729140_1510388605_665881636_1510388331" from="1510388331" to="1510388076" numLanes="1" speed="8.33" />
	<edge id="137729140_1510388605_665881636_1510388076" from="1510388076" to="1510387518" numLanes="1" speed="8.33" />
	<edge id="137729140_1510388605_665881636_1510387518" from="1510387518" to="2970315335" numLanes="1" speed="8.33" />
	<edge id="137729140_1510388605_665881636_2970315335" from="2970315335" to="1510387226" numLanes="1" speed="8.33" />
	<edge id="137729140_1510388605_665881636_1510387226" from="1510387226" to="665881641" numLanes="1" speed="8.33" />
	<edge id="137729140_1510388605_665881636_665881641" from="665881641" to="2970315336" numLanes="1" speed="8.33" />
	<edge id="137729140_1510388605_665881636_2970315336" from="2970315336" to="665881638" numLanes="1" speed="8.33" />
	<edge id="137729140_1510388605_665881636_665881638" from="665881638" to="665881636" numLanes="1" speed="8.33" />
	<edge id="185559201_3005104363_3005104362_3005104363" from="3005104363" to="2702650861" numLanes="1" speed="5.56" />
	<edge id="185559201_3005104363_3005104362_2702650861" from="2702650861" to="2702650856" numLanes="1" speed="5.56" />
	<edge id="185559201_3005104363_3005104362_2702650856" from="2702650856" to="2702650848" numLanes="1" speed="5.56" />
	<edge id="185559201_3005104363_3005104362_2702650848" from="2702650848" to="2702650841" numLanes="1" speed="5.56" />
	<edge id="185559201_3005104363_3005104362_2702650841" from="2702650841" to="1962019437" numLanes="1" speed="5.56" />
	<edge id="185559201_3005104363_3005104362_1962019437" from="1962019437" to="3005104365" numLanes="1" speed="5.56" />
	<edge id="185559201_3005104363_3005104362_3005104365" from="3005104365" to="2699059721" numLanes="1" speed="5.56" />
	<edge id="185559201_3005104363_3005104362_2699059721" from="2699059721" to="2699059722" numLanes="1" speed="5.56" />
	<edge id="185559201_3005104363_3005104362_2699059722" from="2699059722" to="3005104366" numLanes="1" speed="5.56" />
	<edge id="185559201_3005104363_3005104362_3005104366" from="3005104366" to="1962019412" numLanes="1" speed="5.56" />
	<edge id="185559201_3005104363_3005104362_1962019412" from="1962019412" to="2702650843" numLanes="1" speed="5.56" />
	<edge id="185559201_3005104363_3005104362_2702650843" from="2702650843" to="2702650846" numLanes="1" speed="5.56" />
	<edge id="185559201_3005104363_3005104362_2702650846" from="2702650846" to="2702650858" numLanes="1" speed="5.56" />
	<edge id="185559201_3005104363_3005104362_2702650858" from="2702650858" to="2702650863" numLanes="1" speed="5.56" />
	<edge id="185559201_3005104363_3005104362_2702650863" from="2702650863" to="3005104362" numLanes="1" speed="5.56" />
	<edge id="137729140_665881636_1510388605_665881636" from="665881636" to="665881638" numLanes="1" speed="8.33" />
	<edge id="137729140_665881636_1510388605_665881638" from="665881638" to="2970315336" numLanes="1" speed="8.33" />
	<edge id="137729140_665881636_1510388605_2970315336" from="2970315336" to="665881641" numLanes="1" speed="8.33" />
	<edge id="137729140_665881636_1510388605_665881641" from="665881641" to="1510387226" numLanes="1" speed="8.33" />
	<edge id="137729140_665881636_1510388605_1510387226" from="1510387226" to="2970315335" numLanes="1" speed="8.33" />
	<edge id="137729140_665881636_1510388605_2970315335" from="2970315335" to="1510387518" numLanes="1" speed="8.33" />
	<edge id="137729140_665881636_1510388605_1510387518" from="1510387518" to="1510388076" numLanes="1" speed="8.33" />
	<edge id="137729140_665881636_1510388605_1510388076" from="1510388076" to="1510388331" numLanes="1" speed="8.33" />
	<edge id="137729140_665881636_1510388605_1510388331" from="1510388331" to="1510388437" numLanes="1" speed="8.33" />
	<edge id="137729140_665881636_1510388605_1510388437" from="1510388437" to="1510388605" numLanes="1" speed="8.33" />
	<edge id="50823641_3071810522_3071810480_3071810522" from="3071810522" to="3071810523" numLanes="1" speed="13.89" />
	<edge id="50823641_3071810522_3071810480_3071810523" from="3071810523" to="648172460" numLanes="1" speed="13.89" />
	<edge id="50823641_3071810522_3071810480_648172460" from="648172460" to="2700751859" numLanes="1" speed="13.89" />
	<edge id="50823641_3071810522_3071810480_2700751859" from="2700751859" to="3056577769" numLanes="1" speed="13.89" />
	<edge id="50823641_3071810522_3071810480_3056577769" from="3056577769" to="3071810479" numLanes="1" speed="13.89" />
	<edge id="50823641_3071810522_3071810480_3071810479" from="3071810479" to="2773963862" numLanes="1" speed="13.89" />
	<edge id="50823641_3071810522_3071810480_2773963862" from="2773963862" to="3071810480" numLanes="1" speed="13.89" />
	<edge id="50823602_648170814_648170894_648170814" from="648170814" to="3071810478" numLanes="1" speed="8.33" />
	<edge id="50823602_648170814_648170894_3071810478" from="3071810478" to="648170901" numLanes="1" speed="8.33" />
	<edge id="50823602_648170814_648170894_648170901" from="648170901" to="648170900" numLanes="1" speed="8.33" />
	<edge id="50823602_648170814_648170894_648170900" from="648170900" to="648170899" numLanes="1" speed="8.33" />
	<edge id="50823602_648170814_648170894_648170899" from="648170899" to="648170898" numLanes="1" speed="8.33" />
	<edge id="50823602_648170814_648170894_648170898" from="648170898" to="648170897" numLanes="1" speed="8.33" />
	<edge id="50823602_648170814_648170894_648170897" from="648170897" to="648170896" numLanes="1" speed="8.33" />
	<edge id="50823602_648170814_648170894_648170896" from="648170896" to="648170894" numLanes="1" speed="8.33" />
	<edge id="185559142_1962019441_1962019364_1962019441" from="1962019441" to="1962019370" numLanes="1" speed="5.56" />
	<edge id="185559142_1962019441_1962019364_1962019370" from="1962019370" to="1962019364" numLanes="1" speed="5.56" />
	<edge id="166574723_1104387663_1780205726_1104387663" from="1104387663" to="1780205726" numLanes="1" speed="8.33" />
	<edge id="50823641_3071810480_3071810522_3071810480" from="3071810480" to="2773963862" numLanes="1" speed="13.89" />
	<edge id="50823641_3071810480_3071810522_2773963862" from="2773963862" to="3071810479" numLanes="1" speed="13.89" />
	<edge id="50823641_3071810480_3071810522_3071810479" from="3071810479" to="3056577769" numLanes="1" speed="13.89" />
	<edge id="50823641_3071810480_3071810522_3056577769" from="3056577769" to="2700751859" numLanes="1" speed="13.89" />
	<edge id="50823641_3071810480_3071810522_2700751859" from="2700751859" to="648172460" numLanes="1" speed="13.89" />
	<edge id="50823641_3071810480_3071810522_648172460" from="648172460" to="3071810523" numLanes="1" speed="13.89" />
	<edge id="50823641_3071810480_3071810522_3071810523" from="3071810523" to="3071810522" numLanes="1" speed="13.89" />
	<edge id="52345419_665881631_1104387621_665881631" from="665881631" to="1510387176" numLanes="1" speed="8.33" />
	<edge id="52345419_665881631_1104387621_1510387176" from="1510387176" to="665881629" numLanes="1" speed="8.33" />
	<edge id="52345419_665881631_1104387621_665881629" from="665881629" to="665881628" numLanes="1" speed="8.33" />
	<edge id="52345419_665881631_1104387621_665881628" from="665881628" to="665881627" numLanes="1" speed="8.33" />
	<edge id="52345419_665881631_1104387621_665881627" from="665881627" to="1510386127" numLanes="1" speed="8.33" />
	<edge id="52345419_665881631_1104387621_1510386127" from="1510386127" to="1510386117" numLanes="1" speed="8.33" />
	<edge id="52345419_665881631_1104387621_1510386117" from="1510386117" to="1104417615" numLanes="1" speed="8.33" />
	<edge id="52345419_665881631_1104387621_1104417615" from="1104417615" to="1510386651" numLanes="1" speed="8.33" />
	<edge id="52345419_665881631_1104387621_1510386651" from="1510386651" to="1104417566" numLanes="1" speed="8.33" />
	<edge id="52345419_665881631_1104387621_1104417566" from="1104417566" to="1104387621" numLanes="1" speed="8.33" />
	<edge id="185559164_1962019327_1962019364_1962019327" from="1962019327" to="1962019360" numLanes="1" speed="5.56" />
	<edge id="185559164_1962019327_1962019364_1962019360" from="1962019360" to="1962019364" numLanes="1" speed="5.56" />
	<edge id="301819657_2699194657_2699194665_2699194657" from="2699194657" to="3059715567" numLanes="1" speed="13.89" />
	<edge id="301819657_2699194657_2699194665_3059715567" from="3059715567" to="3059715568" numLanes="1" speed="13.89" />
	<edge id="301819657_2699194657_2699194665_3059715568" from="3059715568" to="3059715569" numLanes="1" speed="13.89" />
	<edge id="301819657_2699194657_2699194665_3059715569" from="3059715569" to="3059715570" numLanes="1" speed="13.89" />
	<edge id="301819657_2699194657_2699194665_3059715570" from="3059715570" to="3059715571" numLanes="1" speed="13.89" />
	<edge id="301819657_2699194657_2699194665_3059715571" from="3059715571" to="3059715572" numLanes="1" speed="13.89" />
	<edge id="301819657_2699194657_2699194665_3059715572" from="3059715572" to="2699194665" numLanes="1" speed="13.89" />
	<edge id="264234603_3007356214_2699055626_3007356214" from="3007356214" to="2699055656" numLanes="1" speed="4.17" />
	<edge id="264234603_3007356214_2699055626_2699055656" from="2699055656" to="2699055654" numLanes="1" speed="4.17" />
	<edge id="264234603_3007356214_2699055626_2699055654" from="2699055654" to="2699055652" numLanes="1" speed="4.17" />
	<edge id="264234603_3007356214_2699055626_2699055652" from="2699055652" to="2699055650" numLanes="1" speed="4.17" />
	<edge id="264234603_3007356214_2699055626_2699055650" from="2699055650" to="2699055649" numLanes="1" speed="4.17" />
	<edge id="264234603_3007356214_2699055626_2699055649" from="2699055649" to="2699055647" numLanes="1" speed="4.17" />
	<edge id="264234603_3007356214_2699055626_2699055647" from="2699055647" to="2699055645" numLanes="1" speed="4.17" />
	<edge id="264234603_3007356214_2699055626_2699055645" from="2699055645" to="2699055643" numLanes="1" speed="4.17" />
	<edge id="264234603_3007356214_2699055626_2699055643" from="2699055643" to="2699055641" numLanes="1" speed="4.17" />
	<edge id="264234603_3007356214_2699055626_2699055641" from="2699055641" to="2699055639" numLanes="1" speed="4.17" />
	<edge id="264234603_3007356214_2699055626_2699055639" from="2699055639" to="2699055633" numLanes="1" speed="4.17" />
	<edge id="264234603_3007356214_2699055626_2699055633" from="2699055633" to="2699055631" numLanes="1" speed="4.17" />
	<edge id="264234603_3007356214_2699055626_2699055631" from="2699055631" to="2699055629" numLanes="1" speed="4.17" />
	<edge id="264234603_3007356214_2699055626_2699055629" from="2699055629" to="2699055627" numLanes="1" speed="4.17" />
	<edge id="264234603_3007356214_2699055626_2699055627" from="2699055627" to="2699055626" numLanes="1" speed="4.17" />
	<edge id="301937550_3061131988_3061132020_3061131988" from="3061131988" to="3061132029" numLanes="1" speed="5.56" />
	<edge id="301937550_3061131988_3061132020_3061132029" from="3061132029" to="3061132030" numLanes="1" speed="5.56" />
	<edge id="301937550_3061131988_3061132020_3061132030" from="3061132030" to="3061132019" numLanes="1" speed="5.56" />
	<edge id="301937550_3061131988_3061132020_3061132019" from="3061132019" to="3061132031" numLanes="1" speed="5.56" />
	<edge id="301937550_3061131988_3061132020_3061132031" from="3061132031" to="3061132032" numLanes="1" speed="5.56" />
	<edge id="301937550_3061131988_3061132020_3061132032" from="3061132032" to="3061132020" numLanes="1" speed="5.56" />
	<edge id="95200065_6061833826_648167856_6061833826" from="6061833826" to="4996697723" numLanes="1" speed="8.33" />
	<edge id="95200065_6061833826_648167856_4996697723" from="4996697723" to="648167856" numLanes="1" speed="8.33" />
	<edge id="264234600_2699055744_2699055577_2699055744" from="2699055744" to="2699055589" numLanes="1" speed="8.33" />
	<edge id="264234600_2699055744_2699055577_2699055589" from="2699055589" to="2699055587" numLanes="1" speed="8.33" />
	<edge id="264234600_2699055744_2699055577_2699055587" from="2699055587" to="2699055586" numLanes="1" speed="8.33" />
	<edge id="264234600_2699055744_2699055577_2699055586" from="2699055586" to="2699055585" numLanes="1" speed="8.33" />
	<edge id="264234600_2699055744_2699055577_2699055585" from="2699055585" to="2699055584" numLanes="1" speed="8.33" />
	<edge id="264234600_2699055744_2699055577_2699055584" from="2699055584" to="2699055583" numLanes="1" speed="8.33" />
	<edge id="264234600_2699055744_2699055577_2699055583" from="2699055583" to="2699055582" numLanes="1" speed="8.33" />
	<edge id="264234600_2699055744_2699055577_2699055582" from="2699055582" to="2699055581" numLanes="1" speed="8.33" />
	<edge id="264234600_2699055744_2699055577_2699055581" from="2699055581" to="2699055580" numLanes="1" speed="8.33" />
	<edge id="264234600_2699055744_2699055577_2699055580" from="2699055580" to="2699055579" numLanes="1" speed="8.33" />
	<edge id="264234600_2699055744_2699055577_2699055579" from="2699055579" to="2699055578" numLanes="1" speed="8.33" />
	<edge id="264234600_2699055744_2699055577_2699055578" from="2699055578" to="2699055577" numLanes="1" speed="8.33" />
	<edge id="264239352_2699055701_2699055700_2699055701" from="2699055701" to="2700751907" numLanes="1" speed="13.89" />
	<edge id="264239352_2699055701_2699055700_2700751907" from="2700751907" to="2699055700" numLanes="1" speed="13.89" />
	<edge id="185559192_2699035700_1104387709_2699035700" from="2699035700" to="3066899693" numLanes="1" speed="13.89" />
	<edge id="185559192_2699035700_1104387709_3066899693" from="3066899693" to="3066899692" numLanes="1" speed="13.89" />
	<edge id="185559192_2699035700_1104387709_3066899692" from="3066899692" to="2778690834" numLanes="1" speed="13.89" />
	<edge id="185559192_2699035700_1104387709_2778690834" from="2778690834" to="3066899697" numLanes="1" speed="13.89" />
	<edge id="185559192_2699035700_1104387709_3066899697" from="3066899697" to="3066899689" numLanes="1" speed="13.89" />
	<edge id="185559192_2699035700_1104387709_3066899689" from="3066899689" to="3066899695" numLanes="1" speed="13.89" />
	<edge id="185559192_2699035700_1104387709_3066899695" from="3066899695" to="1104387709" numLanes="1" speed="13.89" />
	<edge id="264223127_2699055759_2699220301_2699055759" from="2699055759" to="2699008630" numLanes="1" speed="5.56" />
	<edge id="264223127_2699055759_2699220301_2699008630" from="2699008630" to="2699220304" numLanes="1" speed="5.56" />
	<edge id="264223127_2699055759_2699220301_2699220304" from="2699220304" to="3007356227" numLanes="1" speed="5.56" />
	<edge id="264223127_2699055759_2699220301_3007356227" from="3007356227" to="2699220302" numLanes="1" speed="5.56" />
	<edge id="264223127_2699055759_2699220301_2699220302" from="2699220302" to="2699220301" numLanes="1" speed="5.56" />
	<edge id="278042067_2824723434_2824723438_2824723434" from="2824723434" to="2824723439" numLanes="1" speed="8.33" />
	<edge id="278042067_2824723434_2824723438_2824723439" from="2824723439" to="2824723441" numLanes="1" speed="8.33" />
	<edge id="278042067_2824723434_2824723438_2824723441" from="2824723441" to="2824723442" numLanes="1" speed="8.33" />
	<edge id="278042067_2824723434_2824723438_2824723442" from="2824723442" to="2824723438" numLanes="1" speed="8.33" />
	<edge id="301937545_3061132015_3061132016_3061132015" from="3061132015" to="3061132016" numLanes="1" speed="5.56" />
	<edge id="185558765_2699244763_3071810489_2699244763" from="2699244763" to="2699244762" numLanes="2" speed="18.06" />
	<edge id="185558765_2699244763_3071810489_2699244762" from="2699244762" to="3071810489" numLanes="2" speed="18.06" />
	<edge id="264234611_2699055732_2699055577_2699055732" from="2699055732" to="2699055745" numLanes="1" speed="8.33" />
	<edge id="264234611_2699055732_2699055577_2699055745" from="2699055745" to="2699055746" numLanes="1" speed="8.33" />
	<edge id="264234611_2699055732_2699055577_2699055746" from="2699055746" to="2699055747" numLanes="1" speed="8.33" />
	<edge id="264234611_2699055732_2699055577_2699055747" from="2699055747" to="2699055748" numLanes="1" speed="8.33" />
	<edge id="264234611_2699055732_2699055577_2699055748" from="2699055748" to="2699055749" numLanes="1" speed="8.33" />
	<edge id="264234611_2699055732_2699055577_2699055749" from="2699055749" to="2699055750" numLanes="1" speed="8.33" />
	<edge id="264234611_2699055732_2699055577_2699055750" from="2699055750" to="2699055751" numLanes="1" speed="8.33" />
	<edge id="264234611_2699055732_2699055577_2699055751" from="2699055751" to="2699055752" numLanes="1" speed="8.33" />
	<edge id="264234611_2699055732_2699055577_2699055752" from="2699055752" to="2699055753" numLanes="1" speed="8.33" />
	<edge id="264234611_2699055732_2699055577_2699055753" from="2699055753" to="2699055577" numLanes="1" speed="8.33" />
	<edge id="301937550_3061131988_3061132016_3061131988" from="3061131988" to="3061132028" numLanes="1" speed="5.56" />
	<edge id="301937550_3061131988_3061132016_3061132028" from="3061132028" to="3061132026" numLanes="1" speed="5.56" />
	<edge id="301937550_3061131988_3061132016_3061132026" from="3061132026" to="3061132027" numLanes="1" speed="5.56" />
	<edge id="301937550_3061131988_3061132016_3061132027" from="3061132027" to="3061132018" numLanes="1" speed="5.56" />
	<edge id="301937550_3061131988_3061132016_3061132018" from="3061132018" to="3061132024" numLanes="1" speed="5.56" />
	<edge id="301937550_3061131988_3061132016_3061132024" from="3061132024" to="3061132025" numLanes="1" speed="5.56" />
	<edge id="301937550_3061131988_3061132016_3061132025" from="3061132025" to="3061132017" numLanes="1" speed="5.56" />
	<edge id="301937550_3061131988_3061132016_3061132017" from="3061132017" to="3061132023" numLanes="1" speed="5.56" />
	<edge id="301937550_3061131988_3061132016_3061132023" from="3061132023" to="3061132022" numLanes="1" speed="5.56" />
	<edge id="301937550_3061131988_3061132016_3061132022" from="3061132022" to="3061132021" numLanes="1" speed="5.56" />
	<edge id="301937550_3061131988_3061132016_3061132021" from="3061132021" to="3061132016" numLanes="1" speed="5.56" />
	<edge id="301937550_3061132016_3061131988_3061132016" from="3061132016" to="3061132021" numLanes="1" speed="5.56" />
	<edge id="301937550_3061132016_3061131988_3061132021" from="3061132021" to="3061132022" numLanes="1" speed="5.56" />
	<edge id="301937550_3061132016_3061131988_3061132022" from="3061132022" to="3061132023" numLanes="1" speed="5.56" />
	<edge id="301937550_3061132016_3061131988_3061132023" from="3061132023" to="3061132017" numLanes="1" speed="5.56" />
	<edge id="301937550_3061132016_3061131988_3061132017" from="3061132017" to="3061132025" numLanes="1" speed="5.56" />
	<edge id="301937550_3061132016_3061131988_3061132025" from="3061132025" to="3061132024" numLanes="1" speed="5.56" />
	<edge id="301937550_3061132016_3061131988_3061132024" from="3061132024" to="3061132018" numLanes="1" speed="5.56" />
	<edge id="301937550_3061132016_3061131988_3061132018" from="3061132018" to="3061132027" numLanes="1" speed="5.56" />
	<edge id="301937550_3061132016_3061131988_3061132027" from="3061132027" to="3061132026" numLanes="1" speed="5.56" />
	<edge id="301937550_3061132016_3061131988_3061132026" from="3061132026" to="3061132028" numLanes="1" speed="5.56" />
	<edge id="301937550_3061132016_3061131988_3061132028" from="3061132028" to="3061131988" numLanes="1" speed="5.56" />
	<edge id="264225673_2699148450_2699035698_2699148450" from="2699148450" to="1962019451" numLanes="1" speed="11.11" />
	<edge id="264225673_2699148450_2699035698_1962019451" from="1962019451" to="3005104396" numLanes="1" speed="11.11" />
	<edge id="264225673_2699148450_2699035698_3005104396" from="3005104396" to="3005104395" numLanes="1" speed="11.11" />
	<edge id="264225673_2699148450_2699035698_3005104395" from="3005104395" to="2702650835" numLanes="1" speed="11.11" />
	<edge id="264225673_2699148450_2699035698_2702650835" from="2702650835" to="2699035698" numLanes="1" speed="11.11" />
	<edge id="185559127_2699035690_1962019372_2699035690" from="2699035690" to="2702650830" numLanes="1" speed="5.56" />