<?xml version="1.0" ?>
<!-- Generated by VSimRTI -->
<routes>
	<vType id="default" length="7.5" maxSpeed="50" minGap="2.0" carFollowModel="Krauss" accel="0.80" decel="4.5" sigma="0.5" tau="1"/>
	<route id="1" edges="171143032_1822196540_665884317_665884268 171143032_1822196540_665884317_665884279 171143032_1822196540_665884317_665884097 171143032_1822196540_665884317_665884287 171143032_1822196540_665884317_665884295 171143032_1822196540_665884317_665884297 171143032_1822196540_665884317_665884298 171143032_1822196540_665884317_1510383850 171143032_1822196540_665884317_3010189025 171143032_1822196540_665884317_665884299 171143032_1822196540_665884317_665884302 171143032_1822196540_665884317_665884311 95200091_665884317_665884711_665884317 95200091_665884317_665884711_1962019231 95200091_665884317_665884711_1104387730 95200091_665884711_1104387621_665884711 95200091_665884711_1104387621_1104387680 52345419_1104387621_665881631_1104387621 52345419_1104387621_665881631_1104417566 52345419_1104387621_665881631_1510386651 52345419_1104387621_665881631_1104417615 52345419_1104387621_665881631_1510386117 52345419_1104387621_665881631_1510386127 52345419_1104387621_665881631_665881627 52345419_1104387621_665881631_665881628 52345419_1104387621_665881631_665881629 52345419_1104387621_665881631_1510387176 137729175_665881631_665881636_665881631 137729140_665881636_1510388605_665881636 137729140_665881636_1510388605_665881638 137729140_665881636_1510388605_2970315336 137729140_665881636_1510388605_665881641 137729140_665881636_1510388605_1510387226 137729140_665881636_1510388605_2970315335 137729140_665881636_1510388605_1510387518 137729140_665881636_1510388605_1510388076 137729140_665881636_1510388605_1510388331 137729140_665881636_1510388605_1510388437 171142922_1510388605_1510389077_1510388605 171143118_1510389077_1510390354_1510389077 171143118_1510389077_1510390354_1510389401 171143118_1510389077_1510390354_1510389419 171143118_1510389077_1510390354_1510389906 171143118_1510389077_1510390354_1510390283 302479835_1510390354_3061132015_1510390354 302479835_1510390354_3061132015_1104387539 302479835_3061132015_3067359667_3061132015 302479832_3067359667_1104387709_3067359667 302479832_3067359667_1104387709_3066899688 302479833_1104387709_2699035687_1104387709 302479833_1104387709_2699035687_3066899696 302479833_1104387709_2699035687_3066899690 302479833_1104387709_2699035687_3066899698 302479833_1104387709_2699035687_1962019438 302479833_1104387709_2699035687_3066899691 302479833_1104387709_2699035687_3066899694 95200071_2699035687_2699035690_2699035687 95200071_2699035687_2699035690_2699035688 95200071_2699035687_2699035690_2699035689 95200071_2699035690_2699035693_2699035690 95200071_2699035690_2699035693_2699035691 95200071_2699035690_2699035693_2699035692 95200071_2699035693_2699244763_2699035693 95200071_2699035693_2699244763_2699035685 185558765_2699244763_3071810489_2699244763 185558765_2699244763_3071810489_2699244762 50823641_3071810489_3071810488_3071810489 50823641_3071810488_3071810482_3071810488 50823641_3071810488_3071810482_3071810487 50823641_3071810488_3071810482_3071810486 50823641_3071810488_3071810482_3071810485 50823641_3071810488_3071810482_3071810484 50823641_3071810488_3071810482_3071810483 50823641_3071810482_3071810481_3071810482 50823641_3071810481_3071810480_3071810481 50823641_3071810480_3071810522_3071810480 50823641_3071810480_3071810522_2773963862 50823641_3071810480_3071810522_3071810479 50823641_3071810480_3071810522_3056577769 50823641_3071810480_3071810522_2700751859 50823641_3071810480_3071810522_648172460 50823641_3071810480_3071810522_3071810523 50823641_3071810522_3071810520_3071810522 50823641_3071810522_3071810520_3071810521 50823600_3071810520_648170814_3071810520 50823600_3071810520_648170814_1962019211 50823600_648170814_5214846478_648170814 50823600_5214846478_3071810466_5214846478 50823600_5214846478_3071810466_648170821 50823600_5214846478_3071810466_1946290229 50823600_5214846478_3071810466_5917153286 50823600_5214846478_3071810466_648170830 50823600_5214846478_3071810466_5921493845 50823600_5214846478_3071810466_648170836 50823600_5214846478_3071810466_5921494434 50823600_5214846478_3071810466_648170845" />
	<route id="2" edges="50823600_5214846478_3071810466_3071810476 50823600_5214846478_3071810466_3071810475 50823600_5214846478_3071810466_3071810474 50823600_5214846478_3071810466_3071810473 50823600_5214846478_3071810466_3071810472 50823600_5214846478_3071810466_3071810471 50823600_5214846478_3071810466_3071810470 50823600_5214846478_3071810466_3071810469 50823600_5214846478_3071810466_3071810468 50823600_5214846478_3071810466_3071810467 50823600_3071810466_5214846478_3071810466 50823600_3071810466_5214846478_3071810467 50823600_3071810466_5214846478_3071810468 50823600_3071810466_5214846478_3071810469 50823600_3071810466_5214846478_3071810470 50823600_3071810466_5214846478_3071810471 50823600_3071810466_5214846478_3071810472 50823600_3071810466_5214846478_3071810473 50823600_3071810466_5214846478_3071810474 50823600_3071810466_5214846478_3071810475 50823600_3071810466_5214846478_3071810476 50823600_3071810466_5214846478_648170845 50823600_3071810466_5214846478_5921494434 50823600_3071810466_5214846478_648170836 50823600_3071810466_5214846478_5921493845 50823600_3071810466_5214846478_648170830 50823600_3071810466_5214846478_5917153286 50823600_3071810466_5214846478_1946290229 50823600_3071810466_5214846478_648170821 50823600_5214846478_648170814_5214846478 50823600_648170814_3071810520_648170814 50823600_648170814_3071810520_1962019211 50823641_3071810520_3071810522_3071810520 50823641_3071810520_3071810522_3071810521 50823641_3071810522_3071810480_3071810522 50823641_3071810522_3071810480_3071810523 50823641_3071810522_3071810480_648172460 50823641_3071810522_3071810480_2700751859 50823641_3071810522_3071810480_3056577769 50823641_3071810522_3071810480_3071810479 50823641_3071810522_3071810480_2773963862 50823641_3071810480_3071810481_3071810480 50823641_3071810481_3071810482_3071810481 50823641_3071810482_3071810488_3071810482 50823641_3071810482_3071810488_3071810483 50823641_3071810482_3071810488_3071810484 50823641_3071810482_3071810488_3071810485 50823641_3071810482_3071810488_3071810486 50823641_3071810482_3071810488_3071810487 50823641_3071810488_3071810489_3071810488 302897046_3071810489_2699035694_3071810489 302897046_3071810489_2699035694_2699035686 95200071_2699035694_2699244759_2699035694 95200071_2699035694_2699244759_2699244760 95200071_2699244759_2699035697_2699244759 95200071_2699244759_2699035697_2699035696 95200071_2699035697_2699035698_2699035697 95200071_2699035697_2699035698_2699244757 95200071_2699035698_2699035700_2699035698 95200071_2699035698_2699035700_2699244756 185559192_2699035700_1104387709_2699035700 185559192_2699035700_1104387709_3066899693 185559192_2699035700_1104387709_3066899692 185559192_2699035700_1104387709_2778690834 185559192_2699035700_1104387709_3066899697 185559192_2699035700_1104387709_3066899689 185559192_2699035700_1104387709_3066899695 302479832_1104387709_3067359667_1104387709 302479832_1104387709_3067359667_3066899688 302479835_3067359667_3061132015_3067359667 302479835_3061132015_1510390354_3061132015 302479835_3061132015_1510390354_1104387539 171143118_1510390354_1510389077_1510390354 171143118_1510390354_1510389077_1510390283 171143118_1510390354_1510389077_1510389906 171143118_1510390354_1510389077_1510389419 171143118_1510390354_1510389077_1510389401 171142922_1510389077_1510388605_1510389077 137729140_1510388605_665881636_1510388605 137729140_1510388605_665881636_1510388437 137729140_1510388605_665881636_1510388331 137729140_1510388605_665881636_1510388076 137729140_1510388605_665881636_1510387518 137729140_1510388605_665881636_2970315335 137729140_1510388605_665881636_1510387226 137729140_1510388605_665881636_665881641 137729140_1510388605_665881636_2970315336 137729140_1510388605_665881636_665881638 137729175_665881636_665881631_665881636 52345419_665881631_1104387621_665881631 52345419_665881631_1104387621_1510387176 52345419_665881631_1104387621_665881629 52345419_665881631_1104387621_665881628 52345419_665881631_1104387621_665881627 52345419_665881631_1104387621_1510386127 52345419_665881631_1104387621_1510386117 52345419_665881631_1104387621_1104417615 52345419_665881631_1104387621_1510386651 52345419_665881631_1104387621_1104417566 95200091_1104387621_665884711_1104387621 95200091_1104387621_665884711_1104387680 95200091_665884711_665884317_665884711 95200091_665884711_665884317_1104387730 95200091_665884711_665884317_1962019231 171143032_665884317_1822196540_665884317 171143032_665884317_1822196540_665884311 171143032_665884317_1822196540_665884302 171143032_665884317_1822196540_665884299 171143032_665884317_1822196540_3010189025 171143032_665884317_1822196540_1510383850 171143032_665884317_1822196540_665884298 171143032_665884317_1822196540_665884297 171143032_665884317_1822196540_665884295 171143032_665884317_1822196540_665884287 171143032_665884317_1822196540_665884097 171143032_665884317_1822196540_665884279 171143032_665884317_1822196540_665884268 171143032_665884317_1822196540_665884260 171143032_665884317_1822196540_665884255 171143032_665884317_1822196540_665884247 171143032_665884317_1822196540_665884242 171143032_665884317_1822196540_665884237 171143032_665884317_1822196540_665884232 171143032_665884317_1822196540_665884196 171143032_665884317_1822196540_665884191 171143032_665884317_1822196540_665884186 171143032_665884317_1822196540_665884180 171143032_1822196540_665884317_1822196540 171143032_1822196540_665884317_665884180 171143032_1822196540_665884317_665884186 171143032_1822196540_665884317_665884191 171143032_1822196540_665884317_665884196 171143032_1822196540_665884317_665884232 171143032_1822196540_665884317_665884237 171143032_1822196540_665884317_665884242 171143032_1822196540_665884317_665884247 171143032_1822196540_665884317_665884255 171143032_1822196540_665884317_665884260" />
	<route id="3" edges="644585172_6061833821_665880975_3090048840 644585172_6061833821_665880975_665880976 644585172_6061833821_665880975_3090048830 644585172_665880975_6061833821_665880975 644585172_665880975_6061833821_3090048830 644585172_665880975_6061833821_665880976 644585172_665880975_6061833821_3090048840 644585172_665880975_6061833821_665880977 644585172_6061833821_1104387621_6061833821 95200065_1104387621_665884714_1104387621 95200065_1104387621_665884714_665880978 95200065_1104387621_665884714_3090048831 95200065_1104387621_665884714_665880979 95200065_1104387621_665884714_665880980" />
	<route id="4" edges="95200065_665884714_6061833826_665884714 95200065_6061833826_665884714_6061833826 95200065_665884714_1104387621_665884714 95200065_665884714_1104387621_665880980 95200065_665884714_1104387621_665880979 95200065_665884714_1104387621_3090048831 95200065_665884714_1104387621_665880978 644585172_1104387621_6061833821_1104387621 644585172_6061833821_665880975_6061833821 644585172_6061833821_665880975_665880977" />
	<route id="5" edges="302479831_3067359666_1104387663_3067359666 302479831_3067359666_1104387663_1104387703 302479831_3067359666_1104387663_3067359663 302479831_3067359666_1104387663_2700783832 302479831_3067359666_1104387663_3055140197 302479831_3067359666_1104387663_1104387638 302479831_3067359666_1104387663_2700783822 302479831_3067359666_1104387663_3066899683 302479831_3067359666_1104387663_3066899684 302479831_3067359666_1104387663_3066899699 302479831_3067359666_1104387663_3066900180 302479831_3067359666_1104387663_3066899685 302479831_1104387663_1510390354_1104387663 302479831_1104387663_1510390354_3066899686 302479831_1104387663_1510390354_3066899687 302479835_1510390354_3061132015_1510390354 302479835_1510390354_3061132015_1104387539 302479835_3061132015_3067359667_3061132015 302479832_3067359667_1104387709_3067359667 302479832_3067359667_1104387709_3066899688 302479833_1104387709_2699035687_1104387709 302479833_1104387709_2699035687_3066899696 302479833_1104387709_2699035687_3066899690 302479833_1104387709_2699035687_3066899698 302479833_1104387709_2699035687_1962019438 302479833_1104387709_2699035687_3066899691 302479833_1104387709_2699035687_3066899694 95200071_2699035687_2699035690_2699035687 95200071_2699035687_2699035690_2699035688 95200071_2699035687_2699035690_2699035689 95200071_2699035690_2699035693_2699035690 95200071_2699035690_2699035693_2699035691 95200071_2699035690_2699035693_2699035692 95200071_2699035693_2699244763_2699035693 95200071_2699035693_2699244763_2699035685 185558765_2699244763_3071810489_2699244763 185558765_2699244763_3071810489_2699244762 50823641_3071810489_3071810488_3071810489 50823641_3071810488_3071810482_3071810488 50823641_3071810488_3071810482_3071810487 50823641_3071810488_3071810482_3071810486 50823641_3071810488_3071810482_3071810485 50823641_3071810488_3071810482_3071810484 50823641_3071810488_3071810482_3071810483 706341110_3071810482_648170894_3071810482 706341110_3071810482_648170894_648168822 706341110_648170894_648166977_648170894 706341110_648170894_648166977_648168820 706341110_648170894_648166977_648168815" />
	<route id="6" edges="706341110_648170894_648166977_648168812 706341110_648170894_648166977_648168810 706341110_648166977_648170894_648166977 706341110_648166977_648170894_648168810 706341110_648166977_648170894_648168812 706341110_648166977_648170894_648168815 706341110_648166977_648170894_648168820 706341110_648170894_3071810482_648170894 706341110_648170894_3071810482_648168822 50823641_3071810482_3071810488_3071810482 50823641_3071810482_3071810488_3071810483 50823641_3071810482_3071810488_3071810484 50823641_3071810482_3071810488_3071810485 50823641_3071810482_3071810488_3071810486 50823641_3071810482_3071810488_3071810487 50823641_3071810488_3071810489_3071810488 302897046_3071810489_2699035694_3071810489 302897046_3071810489_2699035694_2699035686 95200071_2699035694_2699244759_2699035694 95200071_2699035694_2699244759_2699244760 95200071_2699244759_2699035697_2699244759 95200071_2699244759_2699035697_2699035696 95200071_2699035697_2699035698_2699035697 95200071_2699035697_2699035698_2699244757 95200071_2699035698_2699035700_2699035698 95200071_2699035698_2699035700_2699244756 185559192_2699035700_1104387709_2699035700 185559192_2699035700_1104387709_3066899693 185559192_2699035700_1104387709_3066899692 185559192_2699035700_1104387709_2778690834 185559192_2699035700_1104387709_3066899697 185559192_2699035700_1104387709_3066899689 185559192_2699035700_1104387709_3066899695 302479832_1104387709_3067359667_1104387709 302479832_1104387709_3067359667_3066899688 302479835_3067359667_3061132015_3067359667 302479835_3061132015_1510390354_3061132015 302479835_3061132015_1510390354_1104387539 302479831_1510390354_1104387663_1510390354 302479831_1510390354_1104387663_3066899687 302479831_1510390354_1104387663_3066899686 302479831_1104387663_3067359666_1104387663 302479831_1104387663_3067359666_3066899685 302479831_1104387663_3067359666_3066900180 302479831_1104387663_3067359666_3066899699 302479831_1104387663_3067359666_3066899684 302479831_1104387663_3067359666_3066899683 302479831_1104387663_3067359666_2700783822 302479831_1104387663_3067359666_1104387638 302479831_1104387663_3067359666_3055140197 302479831_1104387663_3067359666_2700783832 302479831_1104387663_3067359666_3067359663 302479831_1104387663_3067359666_1104387703" />
	<route id="7" edges="264248308_2700008172_2699906663_2700008172 264248308_2700008172_2699906663_3059715660 264248308_2700008172_2699906663_2700008173 264248308_2700008172_2699906663_2700008243 264248308_2700008172_2699906663_3059715658 264248308_2700008172_2699906663_2700008174 264248308_2700008172_2699906663_3059715659 264248308_2700008172_2699906663_2700008157 264248308_2700008172_2699906663_3059715657 264248308_2700008172_2699906663_2700008158 264248308_2700008172_2699906663_2700008159 264248308_2700008172_2699906663_2699343008 264248308_2700008172_2699906663_2699343007 264248308_2700008172_2699906663_3059715655 264248308_2700008172_2699906663_3059715656 264248308_2700008172_2699906663_2699343006 264248308_2700008172_2699906663_2699343005 264248308_2700008172_2699906663_2699906718 264248308_2700008172_2699906663_2699343003 264248308_2700008172_2699906663_3059715654 264248308_2700008172_2699906663_2699343002 302569718_2699906663_3059715664_2699906663 302569718_2699906663_3059715664_3059715653 302569718_2699906663_3059715664_3059715652 302569718_2699906663_3059715664_3059715651 302569718_2699906663_3059715664_2699008657 302569718_3059715664_2699194665_3059715664 302569718_3059715664_2699194665_3059355133 302569718_3059715664_2699194665_1962019522 302569718_3059715664_2699194665_2699906609 302569718_3059715664_2699194665_3059355134 302569718_3059715664_2699194665_2699906611 302569718_3059715664_2699194665_2699906615 302569718_3059715664_2699194665_3059715650 302569718_3059715664_2699194665_2699906618 302569718_3059715664_2699194665_2699906636 302569718_3059715664_2699194665_3007356222 301819657_2699194665_3059715573_2699194665 301819657_3059715573_2699194647_3059715573 301819657_3059715573_2699194647_3059715574 301819657_2699194647_2700751937_2699194647 301819657_2699194647_2700751937_3059715559 301819657_2699194647_2700751937_3059715560 301819657_2699194647_2700751937_3059715561 301819657_2699194647_2700751937_3059715562 301819657_2699194647_2700751937_3059715563 301819657_2699194647_2700751937_3059715564 264239352_2700751937_2699055691_2700751937 264239352_2700751937_2699055691_2700751938 264239352_2700751937_2699055691_3056577774 264239352_2699055691_3056577775_2699055691 264239352_2699055691_3056577775_2699194673 264239352_2699055691_3056577775_2700751951 264239352_2699055691_3056577775_2699055694 264239352_2699055691_3056577775_2700751952 264239352_3056577775_2699055700_3056577775 264239352_3056577775_2699055700_2700751918 264239352_3056577775_2699055700_2700751912 264239352_2699055700_2699055701_2699055700 264239352_2699055700_2699055701_2700751907 301456887_2699055701_3071810481_2699055701 301456887_2699055701_3071810481_2699055702 301456887_2699055701_3071810481_3068346836 50823641_3071810481_3071810482_3071810481 50823641_3071810482_3071810488_3071810482 50823641_3071810482_3071810488_3071810483 50823641_3071810482_3071810488_3071810484 50823641_3071810482_3071810488_3071810485 50823641_3071810482_3071810488_3071810486 50823641_3071810482_3071810488_3071810487 50823641_3071810488_3071810489_3071810488 302897046_3071810489_2699035694_3071810489 302897046_3071810489_2699035694_2699035686 95200071_2699035694_2699244759_2699035694 95200071_2699035694_2699244759_2699244760 95200071_2699244759_2699035697_2699244759 95200071_2699244759_2699035697_2699035696 95200071_2699035697_2699035698_2699035697 95200071_2699035697_2699035698_2699244757 95200071_2699035698_2699035700_2699035698 95200071_2699035698_2699035700_2699244756 185559192_2699035700_1104387709_2699035700 185559192_2699035700_1104387709_3066899693 185559192_2699035700_1104387709_3066899692 185559192_2699035700_1104387709_2778690834 185559192_2699035700_1104387709_3066899697 185559192_2699035700_1104387709_3066899689 185559192_2699035700_1104387709_3066899695 302479832_1104387709_3067359667_1104387709 302479832_1104387709_3067359667_3066899688 302479835_3067359667_3061132015_3067359667 302479835_3061132015_1510390354_3061132015 302479835_3061132015_1510390354_1104387539 302479831_1510390354_1104387663_1510390354 302479831_1510390354_1104387663_3066899687 302479831_1510390354_1104387663_3066899686 166574723_1104387663_1780205726_1104387663" />
	<route id="8" edges="302479831_3067359666_1104387663_3066900180 302479831_3067359666_1104387663_3066899685 302479831_1104387663_1510390354_1104387663 302479831_1104387663_1510390354_3066899686 302479831_1104387663_1510390354_3066899687 302479835_1510390354_3061132015_1510390354 302479835_1510390354_3061132015_1104387539 302479835_3061132015_3067359667_3061132015 302479832_3067359667_1104387709_3067359667 302479832_3067359667_1104387709_3066899688 302479833_1104387709_2699035687_1104387709 302479833_1104387709_2699035687_3066899696 302479833_1104387709_2699035687_3066899690 302479833_1104387709_2699035687_3066899698 302479833_1104387709_2699035687_1962019438 302479833_1104387709_2699035687_3066899691 302479833_1104387709_2699035687_3066899694 95200071_2699035687_2699035690_2699035687 95200071_2699035687_2699035690_2699035688 95200071_2699035687_2699035690_2699035689 95200071_2699035690_2699035693_2699035690 95200071_2699035690_2699035693_2699035691 95200071_2699035690_2699035693_2699035692 95200071_2699035693_2699244763_2699035693 95200071_2699035693_2699244763_2699035685 185558765_2699244763_3071810489_2699244763 185558765_2699244763_3071810489_2699244762 50823641_3071810489_3071810488_3071810489 50823641_3071810488_3071810482_3071810488 50823641_3071810488_3071810482_3071810487 50823641_3071810488_3071810482_3071810486 50823641_3071810488_3071810482_3071810485 50823641_3071810488_3071810482_3071810484 50823641_3071810488_3071810482_3071810483 50823641_3071810482_3071810481_3071810482 50823641_3071810481_3071810480_3071810481 264236520_3071810480_2699055701_3071810480 264236520_3071810480_2699055701_2778690833 264236520_3071810480_2699055701_2699065154 264239352_2699055701_2699055700_2699055701 264239352_2699055701_2699055700_2700751907 264239352_2699055700_3056577775_2699055700 264239352_2699055700_3056577775_2700751912 264239352_2699055700_3056577775_2700751918 264239352_3056577775_2699055691_3056577775 264239352_3056577775_2699055691_2700751952 264239352_3056577775_2699055691_2699055694 264239352_3056577775_2699055691_2700751951 264239352_3056577775_2699055691_2699194673 264239352_2699055691_2700751937_2699055691 264239352_2699055691_2700751937_3056577774 264239352_2699055691_2700751937_2700751938 301819657_2700751937_2699194657_2700751937 301819657_2700751937_2699194657_3059715565 301819657_2700751937_2699194657_3059715566 301819657_2699194657_2699194665_2699194657 301819657_2699194657_2699194665_3059715567 301819657_2699194657_2699194665_3059715568 301819657_2699194657_2699194665_3059715569 301819657_2699194657_2699194665_3059715570 301819657_2699194657_2699194665_3059715571 301819657_2699194657_2699194665_3059715572 302569718_2699194665_3059715664_2699194665 302569718_2699194665_3059715664_3007356222 302569718_2699194665_3059715664_2699906636 302569718_2699194665_3059715664_2699906618 302569718_2699194665_3059715664_3059715650 302569718_2699194665_3059715664_2699906615 302569718_2699194665_3059715664_2699906611 302569718_2699194665_3059715664_3059355134 302569718_2699194665_3059715664_2699906609 302569718_2699194665_3059715664_1962019522 302569718_2699194665_3059715664_3059355133 302569718_3059715664_2699906663_3059715664 302569718_3059715664_2699906663_2699008657 302569718_3059715664_2699906663_3059715651 302569718_3059715664_2699906663_3059715652 302569718_3059715664_2699906663_3059715653 264248308_2699906663_2700008172_2699906663 264248308_2699906663_2700008172_2699343002 264248308_2699906663_2700008172_3059715654 264248308_2699906663_2700008172_2699343003 264248308_2699906663_2700008172_2699906718 264248308_2699906663_2700008172_2699343005 264248308_2699906663_2700008172_2699343006 264248308_2699906663_2700008172_3059715656 264248308_2699906663_2700008172_3059715655 264248308_2699906663_2700008172_2699343007 264248308_2699906663_2700008172_2699343008 264248308_2699906663_2700008172_2700008159 264248308_2699906663_2700008172_2700008158 264248308_2699906663_2700008172_3059715657 264248308_2699906663_2700008172_2700008157 264248308_2699906663_2700008172_3059715659 264248308_2699906663_2700008172_2700008174 264248308_2699906663_2700008172_3059715658 264248308_2699906663_2700008172_2700008243 264248308_2699906663_2700008172_2700008173 264248308_2699906663_2700008172_3059715660" />
	<route id="9" edges="302479831_3067359666_1104387663_3066899685 302479831_1104387663_1510390354_1104387663 302479831_1104387663_1510390354_3066899686 302479831_1104387663_1510390354_3066899687 302479835_1510390354_3061132015_1510390354 302479835_1510390354_3061132015_1104387539 302479835_3061132015_3067359667_3061132015 302479832_3067359667_1104387709_3067359667 302479832_3067359667_1104387709_3066899688 302479833_1104387709_2699035687_1104387709 302479833_1104387709_2699035687_3066899696 302479833_1104387709_2699035687_3066899690 302479833_1104387709_2699035687_3066899698 302479833_1104387709_2699035687_1962019438 302479833_1104387709_2699035687_3066899691 302479833_1104387709_2699035687_3066899694 95200071_2699035687_2699035690_2699035687 95200071_2699035687_2699035690_2699035688 95200071_2699035687_2699035690_2699035689 95200071_2699035690_2699035693_2699035690 95200071_2699035690_2699035693_2699035691 95200071_2699035690_2699035693_2699035692 95200071_2699035693_2699244763_2699035693 95200071_2699035693_2699244763_2699035685 185558765_2699244763_3071810489_2699244763 185558765_2699244763_3071810489_2699244762 50823641_3071810489_3071810488_3071810489 50823641_3071810488_3071810482_3071810488 50823641_3071810488_3071810482_3071810487 50823641_3071810488_3071810482_3071810486 50823641_3071810488_3071810482_3071810485 50823641_3071810488_3071810482_3071810484 50823641_3071810488_3071810482_3071810483 50823641_3071810482_3071810481_3071810482 50823641_3071810481_3071810480_3071810481 50823641_3071810480_3071810522_3071810480 50823641_3071810480_3071810522_2773963862 50823641_3071810480_3071810522_3071810479 50823641_3071810480_3071810522_3056577769 50823641_3071810480_3071810522_2700751859 50823641_3071810480_3071810522_648172460 50823641_3071810480_3071810522_3071810523 50823641_3071810522_3071810520_3071810522 50823641_3071810522_3071810520_3071810521 50823641_3071810520_2824723433_3071810520 50823641_3071810520_2824723433_3071810519 50823641_3071810520_2824723433_3071810518 50823641_3071810520_2824723433_2702650873 50823641_2824723433_2824723435_2824723433 50823641_2824723435_2824723489_2824723435 50823641_2824723435_2824723489_4203412407 50823641_2824723435_2824723489_648172467 50823641_2824723435_2824723489_2702650871 50823641_2824723435_2824723489_648175494" />
	<route id="10" edges="50823641_2824723435_2824723489_3059715600 50823641_2824723435_2824723489_2824723454 50823641_2824723435_2824723489_2824723458 50823641_2824723435_2824723489_2702650875 50823641_2824723489_2824723435_2824723489 50823641_2824723489_2824723435_2702650875 50823641_2824723489_2824723435_2824723458 50823641_2824723489_2824723435_2824723454 50823641_2824723489_2824723435_3059715600 50823641_2824723489_2824723435_648175494 50823641_2824723489_2824723435_2702650871 50823641_2824723489_2824723435_648172467 50823641_2824723489_2824723435_4203412407 50823641_2824723435_2824723433_2824723435 50823641_2824723433_3071810520_2824723433 50823641_2824723433_3071810520_2702650873 50823641_2824723433_3071810520_3071810518 50823641_2824723433_3071810520_3071810519 50823641_3071810520_3071810522_3071810520 50823641_3071810520_3071810522_3071810521 50823641_3071810522_3071810480_3071810522 50823641_3071810522_3071810480_3071810523 50823641_3071810522_3071810480_648172460 50823641_3071810522_3071810480_2700751859 50823641_3071810522_3071810480_3056577769 50823641_3071810522_3071810480_3071810479 50823641_3071810522_3071810480_2773963862 50823641_3071810480_3071810481_3071810480 50823641_3071810481_3071810482_3071810481 50823641_3071810482_3071810488_3071810482 50823641_3071810482_3071810488_3071810483 50823641_3071810482_3071810488_3071810484 50823641_3071810482_3071810488_3071810485 50823641_3071810482_3071810488_3071810486 50823641_3071810482_3071810488_3071810487 50823641_3071810488_3071810489_3071810488 302897046_3071810489_2699035694_3071810489 302897046_3071810489_2699035694_2699035686 95200071_2699035694_2699244759_2699035694 95200071_2699035694_2699244759_2699244760 95200071_2699244759_2699035697_2699244759 95200071_2699244759_2699035697_2699035696 95200071_2699035697_2699035698_2699035697 95200071_2699035697_2699035698_2699244757 95200071_2699035698_2699035700_2699035698 95200071_2699035698_2699035700_2699244756 185559192_2699035700_1104387709_2699035700 185559192_2699035700_1104387709_3066899693 185559192_2699035700_1104387709_3066899692 185559192_2699035700_1104387709_2778690834 185559192_2699035700_1104387709_3066899697 185559192_2699035700_1104387709_3066899689 185559192_2699035700_1104387709_3066899695 302479832_1104387709_3067359667_1104387709 302479832_1104387709_3067359667_3066899688 302479835_3067359667_3061132015_3067359667 302479835_3061132015_1510390354_3061132015 302479835_3061132015_1510390354_1104387539 302479831_1510390354_1104387663_1510390354 302479831_1510390354_1104387663_3066899687 302479831_1510390354_1104387663_3066899686 166574723_1104387663_1780205726_1104387663" />
</routes>