<edges>
	<edge id="100119698_1157398863_1157398635_1157398863" from="1157398863" to="1157398646" numLanes="1" speed="8.33" />
	<edge id="100119698_1157398863_1157398635_1157398646" from="1157398646" to="1157398779" numLanes="1" speed="8.33" />
	<edge id="100119698_1157398863_1157398635_1157398779" from="1157398779" to="1157398498" numLanes="1" speed="8.33" />
	<edge id="100119698_1157398863_1157398635_1157398498" from="1157398498" to="1157398104" numLanes="1" speed="8.33" />
	<edge id="100119698_1157398863_1157398635_1157398104" from="1157398104" to="1157398821" numLanes="1" speed="8.33" />
	<edge id="100119698_1157398863_1157398635_1157398821" from="1157398821" to="1157398896" numLanes="1" speed="8.33" />
	<edge id="100119698_1157398863_1157398635_1157398896" from="1157398896" to="1157398726" numLanes="1" speed="8.33" />
	<edge id="100119698_1157398863_1157398635_1157398726" from="1157398726" to="1157398444" numLanes="1" speed="8.33" />
	<edge id="100119698_1157398863_1157398635_1157398444" from="1157398444" to="1157398956" numLanes="1" speed="8.33" />
	<edge id="100119698_1157398863_1157398635_1157398956" from="1157398956" to="1157398170" numLanes="1" speed="8.33" />
	<edge id="100119698_1157398863_1157398635_1157398170" from="1157398170" to="1157398855" numLanes="1" speed="8.33" />
	<edge id="100119698_1157398863_1157398635_1157398855" from="1157398855" to="1157398635" numLanes="1" speed="8.33" />
	<edge id="100119731_1157398518_6230820573_1157398518" from="1157398518" to="1157398137" numLanes="1" speed="8.33" />
	<edge id="100119731_1157398518_6230820573_1157398137" from="1157398137" to="1157398844" numLanes="1" speed="8.33" />
	<edge id="100119731_1157398518_6230820573_1157398844" from="1157398844" to="1157398607" numLanes="1" speed="8.33" />
	<edge id="100119731_1157398518_6230820573_1157398607" from="1157398607" to="1157398751" numLanes="1" speed="8.33" />
	<edge id="100119731_1157398518_6230820573_1157398751" from="1157398751" to="1157398475" numLanes="1" speed="8.33" />
	<edge id="100119731_1157398518_6230820573_1157398475" from="1157398475" to="1157398052" numLanes="1" speed="8.33" />
	<edge id="100119731_1157398518_6230820573_1157398052" from="1157398052" to="1157398797" numLanes="1" speed="8.33" />
	<edge id="100119731_1157398518_6230820573_1157398797" from="1157398797" to="6230820573" numLanes="1" speed="8.33" />
	<edge id="100119731_1157398397_1157398863_1157398397" from="1157398397" to="1157398863" numLanes="1" speed="8.33" />
	<edge id="100119733_1157398909_1157398563_1157398909" from="1157398909" to="1157398738" numLanes="1" speed="8.33" />
	<edge id="100119733_1157398909_1157398563_1157398738" from="1157398738" to="1157398826" numLanes="1" speed="8.33" />
	<edge id="100119733_1157398909_1157398563_1157398826" from="1157398826" to="1157398563" numLanes="1" speed="8.33" />
	<edge id="110527711_1262001741_1262001722_1262001741" from="1262001741" to="1262001650" numLanes="1" speed="8.33" />
	<edge id="110527711_1262001741_1262001722_1262001650" from="1262001650" to="1262001988" numLanes="1" speed="8.33" />
	<edge id="110527711_1262001741_1262001722_1262001988" from="1262001988" to="1262001863" numLanes="1" speed="8.33" />
	<edge id="110527711_1262001741_1262001722_1262001863" from="1262001863" to="1262000843" numLanes="1" speed="8.33" />
	<edge id="110527711_1262001741_1262001722_1262000843" from="1262000843" to="1262000751" numLanes="1" speed="8.33" />
	<edge id="110527711_1262001741_1262001722_1262000751" from="1262000751" to="1262001562" numLanes="1" speed="8.33" />
	<edge id="110527711_1262001741_1262001722_1262001562" from="1262001562" to="1262001226" numLanes="1" speed="8.33" />
	<edge id="110527711_1262001741_1262001722_1262001226" from="1262001226" to="1262001820" numLanes="1" speed="8.33" />
	<edge id="110527711_1262001741_1262001722_1262001820" from="1262001820" to="1262001761" numLanes="1" speed="8.33" />
	<edge id="110527711_1262001741_1262001722_1262001761" from="1262001761" to="1262000671" numLanes="1" speed="8.33" />
	<edge id="110527711_1262001741_1262001722_1262000671" from="1262000671" to="7391808756" numLanes="1" speed="8.33" />
	<edge id="110527711_1262001741_1262001722_7391808756" from="7391808756" to="1262001923" numLanes="1" speed="8.33" />
	<edge id="110527711_1262001741_1262001722_1262001923" from="1262001923" to="1262001050" numLanes="1" speed="8.33" />
	<edge id="110527711_1262001741_1262001722_1262001050" from="1262001050" to="1262000901" numLanes="1" speed="8.33" />
	<edge id="110527711_1262001741_1262001722_1262000901" from="1262000901" to="1262001722" numLanes="1" speed="8.33" />
	<edge id="674717009_1972777747_1972778008_1972777747" from="1972777747" to="1972778008" numLanes="1" speed="13.89" />
	<edge id="100119731_1157398863_1157398397_1157398863" from="1157398863" to="1157398397" numLanes="1" speed="8.33" />
	<edge id="665651616_1157398909_6230820573_1157398909" from="1157398909" to="6230820575" numLanes="1" speed="8.33" />
	<edge id="665651616_1157398909_6230820573_6230820575" from="6230820575" to="6230820574" numLanes="1" speed="8.33" />
	<edge id="665651616_1157398909_6230820573_6230820574" from="6230820574" to="6230820573" numLanes="1" speed="8.33" />
	<edge id="100119731_1157398863_6230820573_1157398863" from="1157398863" to="1157398666" numLanes="1" speed="8.33" />
	<edge id="100119731_1157398863_6230820573_1157398666" from="1157398666" to="1157398872" numLanes="1" speed="8.33" />
	<edge id="100119731_1157398863_6230820573_1157398872" from="1157398872" to="6230820573" numLanes="1" speed="8.33" />
	<edge id="110527711_1157398909_1262001722_1157398909" from="1157398909" to="1262000715" numLanes="1" speed="8.33" />
	<edge id="110527711_1157398909_1262001722_1262000715" from="1262000715" to="1262000996" numLanes="1" speed="8.33" />
	<edge id="110527711_1157398909_1262001722_1262000996" from="1262000996" to="1262001905" numLanes="1" speed="8.33" />
	<edge id="110527711_1157398909_1262001722_1262001905" from="1262001905" to="1262001967" numLanes="1" speed="8.33" />
	<edge id="110527711_1157398909_1262001722_1262001967" from="1262001967" to="1262001618" numLanes="1" speed="8.33" />
	<edge id="110527711_1157398909_1262001722_1262001618" from="1262001618" to="1262001794" numLanes="1" speed="8.33" />
	<edge id="110527711_1157398909_1262001722_1262001794" from="1262001794" to="1262001136" numLanes="1" speed="8.33" />
	<edge id="110527711_1157398909_1262001722_1262001136" from="1262001136" to="1262001341" numLanes="1" speed="8.33" />
	<edge id="110527711_1157398909_1262001722_1262001341" from="1262001341" to="1262000590" numLanes="1" speed="8.33" />
	<edge id="110527711_1157398909_1262001722_1262000590" from="1262000590" to="1262000806" numLanes="1" speed="8.33" />
	<edge id="110527711_1157398909_1262001722_1262000806" from="1262000806" to="1262001845" numLanes="1" speed="8.33" />
	<edge id="110527711_1157398909_1262001722_1262001845" from="1262001845" to="1262001880" numLanes="1" speed="8.33" />
	<edge id="110527711_1157398909_1262001722_1262001880" from="1262001880" to="1262001443" numLanes="1" speed="8.33" />
	<edge id="110527711_1157398909_1262001722_1262001443" from="1262001443" to="1262001722" numLanes="1" speed="8.33" />
	<edge id="100119698_1157398635_1157398863_1157398635" from="1157398635" to="1157398855" numLanes="1" speed="8.33" />
	<edge id="100119698_1157398635_1157398863_1157398855" from="1157398855" to="1157398170" numLanes="1" speed="8.33" />
	<edge id="100119698_1157398635_1157398863_1157398170" from="1157398170" to="1157398956" numLanes="1" speed="8.33" />
	<edge id="100119698_1157398635_1157398863_1157398956" from="1157398956" to="1157398444" numLanes="1" speed="8.33" />
	<edge id="100119698_1157398635_1157398863_1157398444" from="1157398444" to="1157398726" numLanes="1" speed="8.33" />
	<edge id="100119698_1157398635_1157398863_1157398726" from="1157398726" to="1157398896" numLanes="1" speed="8.33" />
	<edge id="100119698_1157398635_1157398863_1157398896" from="1157398896" to="1157398821" numLanes="1" speed="8.33" />
	<edge id="100119698_1157398635_1157398863_1157398821" from="1157398821" to="1157398104" numLanes="1" speed="8.33" />
	<edge id="100119698_1157398635_1157398863_1157398104" from="1157398104" to="1157398498" numLanes="1" speed="8.33" />
	<edge id="100119698_1157398635_1157398863_1157398498" from="1157398498" to="1157398779" numLanes="1" speed="8.33" />
	<edge id="100119698_1157398635_1157398863_1157398779" from="1157398779" to="1157398646" numLanes="1" speed="8.33" />
	<edge id="100119698_1157398635_1157398863_1157398646" from="1157398646" to="1157398863" numLanes="1" speed="8.33" />
	<edge id="100119733_1157398397_1157398909_1157398397" from="1157398397" to="1157398648" numLanes="1" speed="8.33" />
	<edge id="100119733_1157398397_1157398909_1157398648" from="1157398648" to="1157398377" numLanes="1" speed="8.33" />
	<edge id="100119733_1157398397_1157398909_1157398377" from="1157398377" to="1157398909" numLanes="1" speed="8.33" />
	<edge id="180378638_1972778008_6230823290_1972778008" from="1972778008" to="991066387" numLanes="1" speed="13.89" />
	<edge id="180378638_1972778008_6230823290_991066387" from="991066387" to="1262001667" numLanes="1" speed="13.89" />
	<edge id="180378638_1972778008_6230823290_1262001667" from="1262001667" to="1262001991" numLanes="1" speed="13.89" />
	<edge id="180378638_1972778008_6230823290_1262001991" from="1262001991" to="1262001535" numLanes="1" speed="13.89" />
	<edge id="180378638_1972778008_6230823290_1262001535" from="1262001535" to="1262000738" numLanes="1" speed="13.89" />
	<edge id="180378638_1972778008_6230823290_1262000738" from="1262000738" to="1262001186" numLanes="1" speed="13.89" />
	<edge id="180378638_1972778008_6230823290_1262001186" from="1262001186" to="448755894" numLanes="1" speed="13.89" />
	<edge id="180378638_1972778008_6230823290_448755894" from="448755894" to="1262001815" numLanes="1" speed="13.89" />
	<edge id="180378638_1972778008_6230823290_1262001815" from="1262001815" to="6230823290" numLanes="1" speed="13.89" />
	<edge id="110527711_1262001722_1157398909_1262001722" from="1262001722" to="1262001443" numLanes="1" speed="8.33" />
	<edge id="110527711_1262001722_1157398909_1262001443" from="1262001443" to="1262001880" numLanes="1" speed="8.33" />
	<edge id="110527711_1262001722_1157398909_1262001880" from="1262001880" to="1262001845" numLanes="1" speed="8.33" />
	<edge id="110527711_1262001722_1157398909_1262001845" from="1262001845" to="1262000806" numLanes="1" speed="8.33" />
	<edge id="110527711_1262001722_1157398909_1262000806" from="1262000806" to="1262000590" numLanes="1" speed="8.33" />
	<edge id="110527711_1262001722_1157398909_1262000590" from="1262000590" to="1262001341" numLanes="1" speed="8.33" />
	<edge id="110527711_1262001722_1157398909_1262001341" from="1262001341" to="1262001136" numLanes="1" speed="8.33" />
	<edge id="110527711_1262001722_1157398909_1262001136" from="1262001136" to="1262001794" numLanes="1" speed="8.33" />
	<edge id="110527711_1262001722_1157398909_1262001794" from="1262001794" to="1262001618" numLanes="1" speed="8.33" />
	<edge id="110527711_1262001722_1157398909_1262001618" from="1262001618" to="1262001967" numLanes="1" speed="8.33" />
	<edge id="110527711_1262001722_1157398909_1262001967" from="1262001967" to="1262001905" numLanes="1" speed="8.33" />
	<edge id="110527711_1262001722_1157398909_1262001905" from="1262001905" to="1262000996" numLanes="1" speed="8.33" />
	<edge id="110527711_1262001722_1157398909_1262000996" from="1262000996" to="1262000715" numLanes="1" speed="8.33" />
	<edge id="110527711_1262001722_1157398909_1262000715" from="1262000715" to="1157398909" numLanes="1" speed="8.33" />
	<edge id="432602936_6378477447_448755895_6378477447" from="6378477447" to="448755898" numLanes="1" speed="13.89" />
	<edge id="432602936_6378477447_448755895_448755898" from="448755898" to="1084417188" numLanes="1" speed="13.89" />
	<edge id="432602936_6378477447_448755895_1084417188" from="1084417188" to="448755897" numLanes="1" speed="13.89" />
	<edge id="432602936_6378477447_448755895_448755897" from="448755897" to="1084417038" numLanes="1" speed="13.89" />
	<edge id="432602936_6378477447_448755895_1084417038" from="1084417038" to="448755896" numLanes="1" speed="13.89" />
	<edge id="432602936_6378477447_448755895_448755896" from="448755896" to="1084416646" numLanes="1" speed="13.89" />
	<edge id="432602936_6378477447_448755895_1084416646" from="1084416646" to="1084416790" numLanes="1" speed="13.89" />
	<edge id="432602936_6378477447_448755895_1084416790" from="1084416790" to="1084417126" numLanes="1" speed="13.89" />
	<edge id="432602936_6378477447_448755895_1084417126" from="1084417126" to="1084416963" numLanes="1" speed="13.89" />
	<edge id="432602936_6378477447_448755895_1084416963" from="1084416963" to="448755895" numLanes="1" speed="13.89" />
	<edge id="110527711_1262001722_1262001741_1262001722" from="1262001722" to="1262000901" numLanes="1" speed="8.33" />
	<edge id="110527711_1262001722_1262001741_1262000901" from="1262000901" to="1262001050" numLanes="1" speed="8.33" />
	<edge id="110527711_1262001722_1262001741_1262001050" from="1262001050" to="1262001923" numLanes="1" speed="8.33" />
	<edge id="110527711_1262001722_1262001741_1262001923" from="1262001923" to="7391808756" numLanes="1" speed="8.33" />
	<edge id="110527711_1262001722_1262001741_7391808756" from="7391808756" to="1262000671" numLanes="1" speed="8.33" />
	<edge id="110527711_1262001722_1262001741_1262000671" from="1262000671" to="1262001761" numLanes="1" speed="8.33" />
	<edge id="110527711_1262001722_1262001741_1262001761" from="1262001761" to="1262001820" numLanes="1" speed="8.33" />
	<edge id="110527711_1262001722_1262001741_1262001820" from="1262001820" to="1262001226" numLanes="1" speed="8.33" />
	<edge id="110527711_1262001722_1262001741_1262001226" from="1262001226" to="1262001562" numLanes="1" speed="8.33" />
	<edge id="110527711_1262001722_1262001741_1262001562" from="1262001562" to="1262000751" numLanes="1" speed="8.33" />
	<edge id="110527711_1262001722_1262001741_1262000751" from="1262000751" to="1262000843" numLanes="1" speed="8.33" />
	<edge id="110527711_1262001722_1262001741_1262000843" from="1262000843" to="1262001863" numLanes="1" speed="8.33" />
	<edge id="110527711_1262001722_1262001741_1262001863" from="1262001863" to="1262001988" numLanes="1" speed="8.33" />
	<edge id="110527711_1262001722_1262001741_1262001988" from="1262001988" to="1262001650" numLanes="1" speed="8.33" />
	<edge id="110527711_1262001722_1262001741_1262001650" from="1262001650" to="1262001741" numLanes="1" speed="8.33" />
	<edge id="100119731_1157398790_1157398397_1157398790" from="1157398790" to="1157398983" numLanes="1" speed="8.33" />
	<edge id="100119731_1157398790_1157398397_1157398983" from="1157398983" to="1157398464" numLanes="1" speed="8.33" />
	<edge id="100119731_1157398790_1157398397_1157398464" from="1157398464" to="1157398261" numLanes="1" speed="8.33" />
	<edge id="100119731_1157398790_1157398397_1157398261" from="1157398261" to="1157398581" numLanes="1" speed="8.33" />
	<edge id="100119731_1157398790_1157398397_1157398581" from="1157398581" to="1157398835" numLanes="1" speed="8.33" />
	<edge id="100119731_1157398790_1157398397_1157398835" from="1157398835" to="1157398125" numLanes="1" speed="8.33" />
	<edge id="100119731_1157398790_1157398397_1157398125" from="1157398125" to="1157398921" numLanes="1" speed="8.33" />
	<edge id="100119731_1157398790_1157398397_1157398921" from="1157398921" to="1157398397" numLanes="1" speed="8.33" />
	<edge id="100119731_6230820573_1157398518_6230820573" from="6230820573" to="1157398797" numLanes="1" speed="8.33" />
	<edge id="100119731_6230820573_1157398518_1157398797" from="1157398797" to="1157398052" numLanes="1" speed="8.33" />
	<edge id="100119731_6230820573_1157398518_1157398052" from="1157398052" to="1157398475" numLanes="1" speed="8.33" />
	<edge id="100119731_6230820573_1157398518_1157398475" from="1157398475" to="1157398751" numLanes="1" speed="8.33" />
	<edge id="100119731_6230820573_1157398518_1157398751" from="1157398751" to="1157398607" numLanes="1" speed="8.33" />
	<edge id="100119731_6230820573_1157398518_1157398607" from="1157398607" to="1157398844" numLanes="1" speed="8.33" />
	<edge id="100119731_6230820573_1157398518_1157398844" from="1157398844" to="1157398137" numLanes="1" speed="8.33" />
	<edge id="100119731_6230820573_1157398518_1157398137" from="1157398137" to="1157398518" numLanes="1" speed="8.33" />
	<edge id="100119733_1157398909_1157398397_1157398909" from="1157398909" to="1157398377" numLanes="1" speed="8.33" />
	<edge id="100119733_1157398909_1157398397_1157398377" from="1157398377" to="1157398648" numLanes="1" speed="8.33" />
	<edge id="100119733_1157398909_1157398397_1157398648" from="1157398648" to="1157398397" numLanes="1" speed="8.33" />
	<edge id="180378638_1908285512_6230823290_1908285512" from="1908285512" to="1908285508" numLanes="1" speed="13.89" />
	<edge id="180378638_1908285512_6230823290_1908285508" from="1908285508" to="1908285553" numLanes="1" speed="13.89" />
	<edge id="180378638_1908285512_6230823290_1908285553" from="1908285553" to="1908285510" numLanes="1" speed="13.89" />
	<edge id="180378638_1908285512_6230823290_1908285510" from="1908285510" to="1262001872" numLanes="1" speed="13.89" />
	<edge id="180378638_1908285512_6230823290_1262001872" from="1262001872" to="1908285513" numLanes="1" speed="13.89" />
	<edge id="180378638_1908285512_6230823290_1908285513" from="1908285513" to="1908285520" numLanes="1" speed="13.89" />
	<edge id="180378638_1908285512_6230823290_1908285520" from="1908285520" to="1908285532" numLanes="1" speed="13.89" />
	<edge id="180378638_1908285512_6230823290_1908285532" from="1908285532" to="1908285536" numLanes="1" speed="13.89" />
	<edge id="180378638_1908285512_6230823290_1908285536" from="1908285536" to="1908285538" numLanes="1" speed="13.89" />
	<edge id="180378638_1908285512_6230823290_1908285538" from="1908285538" to="1908285505" numLanes="1" speed="13.89" />
	<edge id="180378638_1908285512_6230823290_1908285505" from="1908285505" to="1908285550" numLanes="1" speed="13.89" />
	<edge id="180378638_1908285512_6230823290_1908285550" from="1908285550" to="1908285525" numLanes="1" speed="13.89" />
	<edge id="180378638_1908285512_6230823290_1908285525" from="1908285525" to="1262001753" numLanes="1" speed="13.89" />
	<edge id="180378638_1908285512_6230823290_1262001753" from="1262001753" to="1262000654" numLanes="1" speed="13.89" />
	<edge id="180378638_1908285512_6230823290_1262000654" from="1262000654" to="448755893" numLanes="1" speed="13.89" />
	<edge id="180378638_1908285512_6230823290_448755893" from="448755893" to="6230823290" numLanes="1" speed="13.89" />
	<edge id="180378638_6230823290_1908285512_6230823290" from="6230823290" to="448755893" numLanes="1" speed="13.89" />
	<edge id="180378638_6230823290_1908285512_448755893" from="448755893" to="1262000654" numLanes="1" speed="13.89" />
	<edge id="180378638_6230823290_1908285512_1262000654" from="1262000654" to="1262001753" numLanes="1" speed="13.89" />
	<edge id="180378638_6230823290_1908285512_1262001753" from="1262001753" to="1908285525" numLanes="1" speed="13.89" />
	<edge id="180378638_6230823290_1908285512_1908285525" from="1908285525" to="1908285550" numLanes="1" speed="13.89" />
	<edge id="180378638_6230823290_1908285512_1908285550" from="1908285550" to="1908285505" numLanes="1" speed="13.89" />
	<edge id="180378638_6230823290_1908285512_1908285505" from="1908285505" to="1908285538" numLanes="1" speed="13.89" />
	<edge id="180378638_6230823290_1908285512_1908285538" from="1908285538" to="1908285536" numLanes="1" speed="13.89" />
	<edge id="180378638_6230823290_1908285512_1908285536" from="1908285536" to="1908285532" numLanes="1" speed="13.89" />
	<edge id="180378638_6230823290_1908285512_1908285532" from="1908285532" to="1908285520" numLanes="1" speed="13.89" />
	<edge id="180378638_6230823290_1908285512_1908285520" from="1908285520" to="1908285513" numLanes="1" speed="13.89" />
	<edge id="180378638_6230823290_1908285512_1908285513" from="1908285513" to="1262001872" numLanes="1" speed="13.89" />
	<edge id="180378638_6230823290_1908285512_1262001872" from="1262001872" to="1908285510" numLanes="1" speed="13.89" />
	<edge id="180378638_6230823290_1908285512_1908285510" from="1908285510" to="1908285553" numLanes="1" speed="13.89" />
	<edge id="180378638_6230823290_1908285512_1908285553" from="1908285553" to="1908285508" numLanes="1" speed="13.89" />
	<edge id="180378638_6230823290_1908285512_1908285508" from="1908285508" to="1908285512" numLanes="1" speed="13.89" />
	<edge id="432602936_448755895_6378477447_448755895" from="448755895" to="1084416963" numLanes="1" speed="13.89" />
	<edge id="432602936_448755895_6378477447_1084416963" from="1084416963" to="1084417126" numLanes="1" speed="13.89" />
	<edge id="432602936_448755895_6378477447_1084417126" from="1084417126" to="1084416790" numLanes="1" speed="13.89" />
	<edge id="432602936_448755895_6378477447_1084416790" from="1084416790" to="1084416646" numLanes="1" speed="13.89" />
	<edge id="432602936_448755895_6378477447_1084416646" from="1084416646" to="448755896" numLanes="1" speed="13.89" />
	<edge id="432602936_448755895_6378477447_448755896" from="448755896" to="1084417038" numLanes="1" speed="13.89" />
	<edge id="432602936_448755895_6378477447_1084417038" from="1084417038" to="448755897" numLanes="1" speed="13.89" />
	<edge id="432602936_448755895_6378477447_448755897" from="448755897" to="1084417188" numLanes="1" speed="13.89" />
	<edge id="432602936_448755895_6378477447_1084417188" from="1084417188" to="448755898" numLanes="1" speed="13.89" />
	<edge id="432602936_448755895_6378477447_448755898" from="448755898" to="6378477447" numLanes="1" speed="13.89" />
	<edge id="665652558_1262001722_6230823290_1262001722" from="1262001722" to="6230820379" numLanes="1" speed="8.33" />
	<edge id="665652558_1262001722_6230823290_6230820379" from="6230820379" to="6230820380" numLanes="1" speed="8.33" />
	<edge id="665652558_1262001722_6230823290_6230820380" from="6230820380" to="6230820381" numLanes="1" speed="8.33" />
	<edge id="665652558_1262001722_6230823290_6230820381" from="6230820381" to="6230820382" numLanes="1" speed="8.33" />
	<edge id="665652558_1262001722_6230823290_6230820382" from="6230820382" to="6230820383" numLanes="1" speed="8.33" />
	<edge id="665652558_1262001722_6230823290_6230820383" from="6230820383" to="6230820384" numLanes="1" speed="8.33" />
	<edge id="665652558_1262001722_6230823290_6230820384" from="6230820384" to="6230823285" numLanes="1" speed="8.33" />
	<edge id="665652558_1262001722_6230823290_6230823285" from="6230823285" to="6230823286" numLanes="1" speed="8.33" />
	<edge id="665652558_1262001722_6230823290_6230823286" from="6230823286" to="6230823287" numLanes="1" speed="8.33" />
	<edge id="665652558_1262001722_6230823290_6230823287" from="6230823287" to="6230823288" numLanes="1" speed="8.33" />
	<edge id="665652558_1262001722_6230823290_6230823288" from="6230823288" to="6230823289" numLanes="1" speed="8.33" />
	<edge id="665652558_1262001722_6230823290_6230823289" from="6230823289" to="6230823290" numLanes="1" speed="8.33" />
	<edge id="100119731_6230820573_1157398863_6230820573" from="6230820573" to="1157398872" numLanes="1" speed="8.33" />
	<edge id="100119731_6230820573_1157398863_1157398872" from="1157398872" to="1157398666" numLanes="1" speed="8.33" />
	<edge id="100119731_6230820573_1157398863_1157398666" from="1157398666" to="1157398863" numLanes="1" speed="8.33" />
	<edge id="432602948_1972777747_448755895_1972777747" from="1972777747" to="1972777418" numLanes="1" speed="13.89" />
	<edge id="432602948_1972777747_448755895_1972777418" from="1972777418" to="448755895" numLanes="1" speed="13.89" />
	<edge id="432602948_448755895_1972777747_448755895" from="448755895" to="1972777418" numLanes="1" speed="13.89" />
	<edge id="432602948_448755895_1972777747_1972777418" from="1972777418" to="1972777747" numLanes="1" speed="13.89" />
	<edge id="100119733_1157398563_1157398909_1157398563" from="1157398563" to="1157398826" numLanes="1" speed="8.33" />
	<edge id="100119733_1157398563_1157398909_1157398826" from="1157398826" to="1157398738" numLanes="1" speed="8.33" />
	<edge id="100119733_1157398563_1157398909_1157398738" from="1157398738" to="1157398909" numLanes="1" speed="8.33" />
	<edge id="180378638_6230823290_1972778008_6230823290" from="6230823290" to="1262001815" numLanes="1" speed="13.89" />
	<edge id="180378638_6230823290_1972778008_1262001815" from="1262001815" to="448755894" numLanes="1" speed="13.89" />
	<edge id="180378638_6230823290_1972778008_448755894" from="448755894" to="1262001186" numLanes="1" speed="13.89" />
	<edge id="180378638_6230823290_1972778008_1262001186" from="1262001186" to="1262000738" numLanes="1" speed="13.89" />
	<edge id="180378638_6230823290_1972778008_1262000738" from="1262000738" to="1262001535" numLanes="1" speed="13.89" />
	<edge id="180378638_6230823290_1972778008_1262001535" from="1262001535" to="1262001991" numLanes="1" speed="13.89" />
	<edge id="180378638_6230823290_1972778008_1262001991" from="1262001991" to="1262001667" numLanes="1" speed="13.89" />
	<edge id="180378638_6230823290_1972778008_1262001667" from="1262001667" to="991066387" numLanes="1" speed="13.89" />
	<edge id="180378638_6230823290_1972778008_991066387" from="991066387" to="1972778008" numLanes="1" speed="13.89" />
	<edge id="665651616_6230820573_1157398909_6230820573" from="6230820573" to="6230820574" numLanes="1" speed="8.33" />
	<edge id="665651616_6230820573_1157398909_6230820574" from="6230820574" to="6230820575" numLanes="1" speed="8.33" />
	<edge id="665651616_6230820573_1157398909_6230820575" from="6230820575" to="1157398909" numLanes="1" speed="8.33" />
	<edge id="100119731_1157398397_1157398790_1157398397" from="1157398397" to="1157398921" numLanes="1" speed="8.33" />
	<edge id="100119731_1157398397_1157398790_1157398921" from="1157398921" to="1157398125" numLanes="1" speed="8.33" />
	<edge id="100119731_1157398397_1157398790_1157398125" from="1157398125" to="1157398835" numLanes="1" speed="8.33" />
	<edge id="100119731_1157398397_1157398790_1157398835" from="1157398835" to="1157398581" numLanes="1" speed="8.33" />
	<edge id="100119731_1157398397_1157398790_1157398581" from="1157398581" to="1157398261" numLanes="1" speed="8.33" />
	<edge id="100119731_1157398397_1157398790_1157398261" from="1157398261" to="1157398464" numLanes="1" speed="8.33" />
	<edge id="100119731_1157398397_1157398790_1157398464" from="1157398464" to="1157398983" numLanes="1" speed="8.33" />
	<edge id="100119731_1157398397_1157398790_1157398983" from="1157398983" to="1157398790" numLanes="1" speed="8.33" />
	<edge id="665652558_6230823290_1262001722_6230823290" from="6230823290" to="6230823289" numLanes="1" speed="8.33" />
	<edge id="665652558_6230823290_1262001722_6230823289" from="6230823289" to="6230823288" numLanes="1" speed="8.33" />
	<edge id="665652558_6230823290_1262001722_6230823288" from="6230823288" to="6230823287" numLanes="1" speed="8.33" />
	<edge id="665652558_6230823290_1262001722_6230823287" from="6230823287" to="6230823286" numLanes="1" speed="8.33" />
	<edge id="665652558_6230823290_1262001722_6230823286" from="6230823286" to="6230823285" numLanes="1" speed="8.33" />
	<edge id="665652558_6230823290_1262001722_6230823285" from="6230823285" to="6230820384" numLanes="1" speed="8.33" />
	<edge id="665652558_6230823290_1262001722_6230820384" from="6230820384" to="6230820383" numLanes="1" speed="8.33" />
	<edge id="665652558_6230823290_1262001722_6230820383" from="6230820383" to="6230820382" numLanes="1" speed="8.33" />
	<edge id="665652558_6230823290_1262001722_6230820382" from="6230820382" to="6230820381" numLanes="1" speed="8.33" />
	<edge id="665652558_6230823290_1262001722_6230820381" from="6230820381" to="6230820380" numLanes="1" speed="8.33" />
	<edge id="665652558_6230823290_1262001722_6230820380" from="6230820380" to="6230820379" numLanes="1" speed="8.33" />
	<edge id="665652558_6230823290_1262001722_6230820379" from="6230820379" to="1262001722" numLanes="1" speed="8.33" />
	<edge id="674717009_1972778008_1972777747_1972778008" from="1972778008" to="1972777747" numLanes="1" speed="13.89" />
</edges>
