<?xml version="1.0" ?>
<!-- Generated by VSimRTI -->
<routes>
	<vType id="default" length="7.5" maxSpeed="50" minGap="2.0" carFollowModel="Krauss" accel="0.80" decel="4.5" sigma="0.5" tau="1"/>
	<route id="1" edges="100119731_1157398518_6230820573_1157398518 100119731_1157398518_6230820573_1157398137 100119731_1157398518_6230820573_1157398844 100119731_1157398518_6230820573_1157398607 100119731_1157398518_6230820573_1157398751 100119731_1157398518_6230820573_1157398475 100119731_1157398518_6230820573_1157398052 100119731_1157398518_6230820573_1157398797 665651616_6230820573_1157398909_6230820573 665651616_6230820573_1157398909_6230820574 665651616_6230820573_1157398909_6230820575 110527711_1157398909_1262001722_1157398909 110527711_1157398909_1262001722_1262000715 110527711_1157398909_1262001722_1262000996 110527711_1157398909_1262001722_1262001905 110527711_1157398909_1262001722_1262001967 110527711_1157398909_1262001722_1262001618 110527711_1157398909_1262001722_1262001794 110527711_1157398909_1262001722_1262001136 110527711_1157398909_1262001722_1262001341 110527711_1157398909_1262001722_1262000590 110527711_1157398909_1262001722_1262000806 110527711_1157398909_1262001722_1262001845 110527711_1157398909_1262001722_1262001880 110527711_1157398909_1262001722_1262001443 665652558_1262001722_6230823290_1262001722 665652558_1262001722_6230823290_6230820379 665652558_1262001722_6230823290_6230820380 665652558_1262001722_6230823290_6230820381 665652558_1262001722_6230823290_6230820382 665652558_1262001722_6230823290_6230820383 665652558_1262001722_6230823290_6230820384 665652558_1262001722_6230823290_6230823285 665652558_1262001722_6230823290_6230823286 665652558_1262001722_6230823290_6230823287 665652558_1262001722_6230823290_6230823288 665652558_1262001722_6230823290_6230823289 180378638_6230823290_1908285512_6230823290 180378638_6230823290_1908285512_448755893 180378638_6230823290_1908285512_1262000654 180378638_6230823290_1908285512_1262001753 180378638_6230823290_1908285512_1908285525 180378638_6230823290_1908285512_1908285550 180378638_6230823290_1908285512_1908285505 180378638_6230823290_1908285512_1908285538 180378638_6230823290_1908285512_1908285536 180378638_6230823290_1908285512_1908285532 180378638_6230823290_1908285512_1908285520 180378638_6230823290_1908285512_1908285513 180378638_6230823290_1908285512_1262001872 180378638_6230823290_1908285512_1908285510" />
	<route id="2" edges="100119731_1157398518_6230820573_1157398518 100119731_1157398518_6230820573_1157398137 100119731_1157398518_6230820573_1157398844 100119731_1157398518_6230820573_1157398607 100119731_1157398518_6230820573_1157398751 100119731_1157398518_6230820573_1157398475 100119731_1157398518_6230820573_1157398052 100119731_1157398518_6230820573_1157398797 665651616_6230820573_1157398909_6230820573 665651616_6230820573_1157398909_6230820574 665651616_6230820573_1157398909_6230820575 110527711_1157398909_1262001722_1157398909 110527711_1157398909_1262001722_1262000715 110527711_1157398909_1262001722_1262000996 110527711_1157398909_1262001722_1262001905 110527711_1157398909_1262001722_1262001967 110527711_1157398909_1262001722_1262001618 110527711_1157398909_1262001722_1262001794 110527711_1157398909_1262001722_1262001136 110527711_1157398909_1262001722_1262001341 110527711_1157398909_1262001722_1262000590 110527711_1157398909_1262001722_1262000806 110527711_1157398909_1262001722_1262001845 110527711_1157398909_1262001722_1262001880 110527711_1157398909_1262001722_1262001443 665652558_1262001722_6230823290_1262001722 665652558_1262001722_6230823290_6230820379 665652558_1262001722_6230823290_6230820380 665652558_1262001722_6230823290_6230820381 665652558_1262001722_6230823290_6230820382 665652558_1262001722_6230823290_6230820383 665652558_1262001722_6230823290_6230820384 665652558_1262001722_6230823290_6230823285 665652558_1262001722_6230823290_6230823286 665652558_1262001722_6230823290_6230823287 665652558_1262001722_6230823290_6230823288 665652558_1262001722_6230823290_6230823289 180378638_6230823290_1972778008_6230823290" />
	<route id="3" edges="100119731_1157398518_6230820573_1157398518 100119731_1157398518_6230820573_1157398137 100119731_1157398518_6230820573_1157398844 100119731_1157398518_6230820573_1157398607 100119731_1157398518_6230820573_1157398751 100119731_1157398518_6230820573_1157398475 100119731_1157398518_6230820573_1157398052 100119731_1157398518_6230820573_1157398797 665651616_6230820573_1157398909_6230820573 665651616_6230820573_1157398909_6230820574 665651616_6230820573_1157398909_6230820575 110527711_1157398909_1262001722_1157398909 110527711_1157398909_1262001722_1262000715 110527711_1157398909_1262001722_1262000996 110527711_1157398909_1262001722_1262001905 110527711_1157398909_1262001722_1262001967 110527711_1157398909_1262001722_1262001618 110527711_1157398909_1262001722_1262001794 110527711_1157398909_1262001722_1262001136 110527711_1157398909_1262001722_1262001341 110527711_1157398909_1262001722_1262000590 110527711_1157398909_1262001722_1262000806 110527711_1157398909_1262001722_1262001845 110527711_1157398909_1262001722_1262001880 110527711_1157398909_1262001722_1262001443 665652558_1262001722_6230823290_1262001722 665652558_1262001722_6230823290_6230820379 665652558_1262001722_6230823290_6230820380 665652558_1262001722_6230823290_6230820381 665652558_1262001722_6230823290_6230820382 665652558_1262001722_6230823290_6230820383 665652558_1262001722_6230823290_6230820384 665652558_1262001722_6230823290_6230823285 665652558_1262001722_6230823290_6230823286 665652558_1262001722_6230823290_6230823287 665652558_1262001722_6230823290_6230823288 665652558_1262001722_6230823290_6230823289 180378638_6230823290_1972778008_6230823290 180378638_6230823290_1972778008_1262001815 180378638_6230823290_1972778008_448755894 180378638_6230823290_1972778008_1262001186 180378638_6230823290_1972778008_1262000738 180378638_6230823290_1972778008_1262001535 180378638_6230823290_1972778008_1262001991 180378638_6230823290_1972778008_1262001667 180378638_6230823290_1972778008_991066387 674717009_1972778008_1972777747_1972778008 432602948_1972777747_448755895_1972777747 432602948_1972777747_448755895_1972777418 432602948_448755895_1972777747_448755895" />
	<route id="4" edges="100119733_1157398563_1157398909_1157398563 100119733_1157398563_1157398909_1157398826 100119733_1157398563_1157398909_1157398738 110527711_1157398909_1262001722_1157398909 110527711_1157398909_1262001722_1262000715 110527711_1157398909_1262001722_1262000996 110527711_1157398909_1262001722_1262001905 110527711_1157398909_1262001722_1262001967 110527711_1157398909_1262001722_1262001618 110527711_1157398909_1262001722_1262001794 110527711_1157398909_1262001722_1262001136 110527711_1157398909_1262001722_1262001341 110527711_1157398909_1262001722_1262000590 110527711_1157398909_1262001722_1262000806 110527711_1157398909_1262001722_1262001845 110527711_1157398909_1262001722_1262001880 110527711_1157398909_1262001722_1262001443 665652558_1262001722_6230823290_1262001722 665652558_1262001722_6230823290_6230820379 665652558_1262001722_6230823290_6230820380 665652558_1262001722_6230823290_6230820381 665652558_1262001722_6230823290_6230820382 665652558_1262001722_6230823290_6230820383 665652558_1262001722_6230823290_6230820384 665652558_1262001722_6230823290_6230823285 665652558_1262001722_6230823290_6230823286 665652558_1262001722_6230823290_6230823287 665652558_1262001722_6230823290_6230823288 665652558_1262001722_6230823290_6230823289 180378638_6230823290_1908285512_6230823290 180378638_6230823290_1908285512_448755893 180378638_6230823290_1908285512_1262000654 180378638_6230823290_1908285512_1262001753 180378638_6230823290_1908285512_1908285525 180378638_6230823290_1908285512_1908285550 180378638_6230823290_1908285512_1908285505 180378638_6230823290_1908285512_1908285538 180378638_6230823290_1908285512_1908285536 180378638_6230823290_1908285512_1908285532 180378638_6230823290_1908285512_1908285520 180378638_6230823290_1908285512_1908285513 180378638_6230823290_1908285512_1262001872 180378638_6230823290_1908285512_1908285510" />
	<route id="5" edges="180378638_6230823290_1908285512_1908285553 180378638_6230823290_1908285512_1908285508 180378638_1908285512_6230823290_1908285512 180378638_1908285512_6230823290_1908285508 180378638_1908285512_6230823290_1908285553 180378638_1908285512_6230823290_1908285510 180378638_1908285512_6230823290_1262001872 180378638_1908285512_6230823290_1908285513 180378638_1908285512_6230823290_1908285520 180378638_1908285512_6230823290_1908285532 180378638_1908285512_6230823290_1908285536 180378638_1908285512_6230823290_1908285538 180378638_1908285512_6230823290_1908285505 180378638_1908285512_6230823290_1908285550 180378638_1908285512_6230823290_1908285525 180378638_1908285512_6230823290_1262001753 180378638_1908285512_6230823290_1262000654 180378638_1908285512_6230823290_448755893 665652558_6230823290_1262001722_6230823290 665652558_6230823290_1262001722_6230823289 665652558_6230823290_1262001722_6230823288 665652558_6230823290_1262001722_6230823287 665652558_6230823290_1262001722_6230823286 665652558_6230823290_1262001722_6230823285 665652558_6230823290_1262001722_6230820384 665652558_6230823290_1262001722_6230820383 665652558_6230823290_1262001722_6230820382 665652558_6230823290_1262001722_6230820381 665652558_6230823290_1262001722_6230820380 665652558_6230823290_1262001722_6230820379 110527711_1262001722_1157398909_1262001722 110527711_1262001722_1157398909_1262001443 110527711_1262001722_1157398909_1262001880 110527711_1262001722_1157398909_1262001845 110527711_1262001722_1157398909_1262000806 110527711_1262001722_1157398909_1262000590 110527711_1262001722_1157398909_1262001341 110527711_1262001722_1157398909_1262001136 110527711_1262001722_1157398909_1262001794 110527711_1262001722_1157398909_1262001618 110527711_1262001722_1157398909_1262001967 110527711_1262001722_1157398909_1262001905 110527711_1262001722_1157398909_1262000996 110527711_1262001722_1157398909_1262000715 665651616_1157398909_6230820573_1157398909 665651616_1157398909_6230820573_6230820575 665651616_1157398909_6230820573_6230820574 100119731_6230820573_1157398518_6230820573 100119731_6230820573_1157398518_1157398797 100119731_6230820573_1157398518_1157398052 100119731_6230820573_1157398518_1157398475 100119731_6230820573_1157398518_1157398751 100119731_6230820573_1157398518_1157398607 100119731_6230820573_1157398518_1157398844 100119731_6230820573_1157398518_1157398137" />
	<route id="6" edges="180378638_6230823290_1972778008_1262001815 180378638_6230823290_1972778008_448755894 180378638_6230823290_1972778008_1262001186 180378638_6230823290_1972778008_1262000738 180378638_6230823290_1972778008_1262001535 180378638_6230823290_1972778008_1262001991 180378638_6230823290_1972778008_1262001667 180378638_6230823290_1972778008_991066387 180378638_1972778008_6230823290_1972778008 180378638_1972778008_6230823290_991066387 180378638_1972778008_6230823290_1262001667 180378638_1972778008_6230823290_1262001991 180378638_1972778008_6230823290_1262001535 180378638_1972778008_6230823290_1262000738 180378638_1972778008_6230823290_1262001186 180378638_1972778008_6230823290_448755894 180378638_1972778008_6230823290_1262001815 665652558_6230823290_1262001722_6230823290 665652558_6230823290_1262001722_6230823289 665652558_6230823290_1262001722_6230823288 665652558_6230823290_1262001722_6230823287 665652558_6230823290_1262001722_6230823286 665652558_6230823290_1262001722_6230823285 665652558_6230823290_1262001722_6230820384 665652558_6230823290_1262001722_6230820383 665652558_6230823290_1262001722_6230820382 665652558_6230823290_1262001722_6230820381 665652558_6230823290_1262001722_6230820380 665652558_6230823290_1262001722_6230820379 110527711_1262001722_1157398909_1262001722 110527711_1262001722_1157398909_1262001443 110527711_1262001722_1157398909_1262001880 110527711_1262001722_1157398909_1262001845 110527711_1262001722_1157398909_1262000806 110527711_1262001722_1157398909_1262000590 110527711_1262001722_1157398909_1262001341 110527711_1262001722_1157398909_1262001136 110527711_1262001722_1157398909_1262001794 110527711_1262001722_1157398909_1262001618 110527711_1262001722_1157398909_1262001967 110527711_1262001722_1157398909_1262001905 110527711_1262001722_1157398909_1262000996 110527711_1262001722_1157398909_1262000715 665651616_1157398909_6230820573_1157398909 665651616_1157398909_6230820573_6230820575 665651616_1157398909_6230820573_6230820574 100119731_6230820573_1157398518_6230820573 100119731_6230820573_1157398518_1157398797 100119731_6230820573_1157398518_1157398052 100119731_6230820573_1157398518_1157398475 100119731_6230820573_1157398518_1157398751 100119731_6230820573_1157398518_1157398607 100119731_6230820573_1157398518_1157398844 100119731_6230820573_1157398518_1157398137" />
	<route id="7" edges="432602948_448755895_1972777747_1972777418 674717009_1972777747_1972778008_1972777747 180378638_1972778008_6230823290_1972778008 180378638_1972778008_6230823290_991066387 180378638_1972778008_6230823290_1262001667 180378638_1972778008_6230823290_1262001991 180378638_1972778008_6230823290_1262001535 180378638_1972778008_6230823290_1262000738 180378638_1972778008_6230823290_1262001186 180378638_1972778008_6230823290_448755894 180378638_1972778008_6230823290_1262001815 665652558_6230823290_1262001722_6230823290 665652558_6230823290_1262001722_6230823289 665652558_6230823290_1262001722_6230823288 665652558_6230823290_1262001722_6230823287 665652558_6230823290_1262001722_6230823286 665652558_6230823290_1262001722_6230823285 665652558_6230823290_1262001722_6230820384 665652558_6230823290_1262001722_6230820383 665652558_6230823290_1262001722_6230820382 665652558_6230823290_1262001722_6230820381 665652558_6230823290_1262001722_6230820380 665652558_6230823290_1262001722_6230820379 110527711_1262001722_1157398909_1262001722 110527711_1262001722_1157398909_1262001443 110527711_1262001722_1157398909_1262001880 110527711_1262001722_1157398909_1262001845 110527711_1262001722_1157398909_1262000806 110527711_1262001722_1157398909_1262000590 110527711_1262001722_1157398909_1262001341 110527711_1262001722_1157398909_1262001136 110527711_1262001722_1157398909_1262001794 110527711_1262001722_1157398909_1262001618 110527711_1262001722_1157398909_1262001967 110527711_1262001722_1157398909_1262001905 110527711_1262001722_1157398909_1262000996 110527711_1262001722_1157398909_1262000715 665651616_1157398909_6230820573_1157398909 665651616_1157398909_6230820573_6230820575 665651616_1157398909_6230820573_6230820574 100119731_6230820573_1157398518_6230820573 100119731_6230820573_1157398518_1157398797 100119731_6230820573_1157398518_1157398052 100119731_6230820573_1157398518_1157398475 100119731_6230820573_1157398518_1157398751 100119731_6230820573_1157398518_1157398607 100119731_6230820573_1157398518_1157398844 100119731_6230820573_1157398518_1157398137" />
</routes>