<connections>
	<connection from="100119698_1157398863_1157398635_1157398863" to="100119698_1157398863_1157398635_1157398646" />
	<connection from="100119698_1157398863_1157398635_1157398646" to="100119698_1157398863_1157398635_1157398779" />
	<connection from="100119698_1157398863_1157398635_1157398779" to="100119698_1157398863_1157398635_1157398498" />
	<connection from="100119698_1157398863_1157398635_1157398498" to="100119698_1157398863_1157398635_1157398104" />
	<connection from="100119698_1157398863_1157398635_1157398104" to="100119698_1157398863_1157398635_1157398821" />
	<connection from="100119698_1157398863_1157398635_1157398821" to="100119698_1157398863_1157398635_1157398896" />
	<connection from="100119698_1157398863_1157398635_1157398896" to="100119698_1157398863_1157398635_1157398726" />
	<connection from="100119698_1157398863_1157398635_1157398726" to="100119698_1157398863_1157398635_1157398444" />
	<connection from="100119698_1157398863_1157398635_1157398444" to="100119698_1157398863_1157398635_1157398956" />
	<connection from="100119698_1157398863_1157398635_1157398956" to="100119698_1157398863_1157398635_1157398170" />
	<connection from="100119698_1157398863_1157398635_1157398170" to="100119698_1157398863_1157398635_1157398855" />
	<connection from="100119698_1157398863_1157398635_1157398855" to="100119698_1157398635_1157398863_1157398635" />
	<connection from="100119731_1157398518_6230820573_1157398518" to="100119731_1157398518_6230820573_1157398137" />
	<connection from="100119731_1157398518_6230820573_1157398137" to="100119731_1157398518_6230820573_1157398844" />
	<connection from="100119731_1157398518_6230820573_1157398844" to="100119731_1157398518_6230820573_1157398607" />
	<connection from="100119731_1157398518_6230820573_1157398607" to="100119731_1157398518_6230820573_1157398751" />
	<connection from="100119731_1157398518_6230820573_1157398751" to="100119731_1157398518_6230820573_1157398475" />
	<connection from="100119731_1157398518_6230820573_1157398475" to="100119731_1157398518_6230820573_1157398052" />
	<connection from="100119731_1157398518_6230820573_1157398052" to="100119731_1157398518_6230820573_1157398797" />
	<connection from="100119731_1157398518_6230820573_1157398797" to="100119731_6230820573_1157398863_6230820573" />
	<connection from="100119731_1157398518_6230820573_1157398797" to="100119731_6230820573_1157398518_6230820573" />
	<connection from="100119731_1157398518_6230820573_1157398797" to="665651616_6230820573_1157398909_6230820573" />
	<connection from="100119731_1157398397_1157398863_1157398397" to="100119698_1157398863_1157398635_1157398863" />
	<connection from="100119731_1157398397_1157398863_1157398397" to="100119731_1157398863_1157398397_1157398863" />
	<connection from="100119731_1157398397_1157398863_1157398397" to="100119731_1157398863_6230820573_1157398863" />
	<connection from="100119733_1157398909_1157398563_1157398909" to="100119733_1157398909_1157398563_1157398738" />
	<connection from="100119733_1157398909_1157398563_1157398738" to="100119733_1157398909_1157398563_1157398826" />
	<connection from="100119733_1157398909_1157398563_1157398826" to="100119733_1157398563_1157398909_1157398563" />
	<connection from="110527711_1262001741_1262001722_1262001741" to="110527711_1262001741_1262001722_1262001650" />
	<connection from="110527711_1262001741_1262001722_1262001650" to="110527711_1262001741_1262001722_1262001988" />
	<connection from="110527711_1262001741_1262001722_1262001988" to="110527711_1262001741_1262001722_1262001863" />
	<connection from="110527711_1262001741_1262001722_1262001863" to="110527711_1262001741_1262001722_1262000843" />
	<connection from="110527711_1262001741_1262001722_1262000843" to="110527711_1262001741_1262001722_1262000751" />
	<connection from="110527711_1262001741_1262001722_1262000751" to="110527711_1262001741_1262001722_1262001562" />
	<connection from="110527711_1262001741_1262001722_1262001562" to="110527711_1262001741_1262001722_1262001226" />
	<connection from="110527711_1262001741_1262001722_1262001226" to="110527711_1262001741_1262001722_1262001820" />
	<connection from="110527711_1262001741_1262001722_1262001820" to="110527711_1262001741_1262001722_1262001761" />
	<connection from="110527711_1262001741_1262001722_1262001761" to="110527711_1262001741_1262001722_1262000671" />
	<connection from="110527711_1262001741_1262001722_1262000671" to="110527711_1262001741_1262001722_7391808756" />
	<connection from="110527711_1262001741_1262001722_7391808756" to="110527711_1262001741_1262001722_1262001923" />
	<connection from="110527711_1262001741_1262001722_1262001923" to="110527711_1262001741_1262001722_1262001050" />
	<connection from="110527711_1262001741_1262001722_1262001050" to="110527711_1262001741_1262001722_1262000901" />
	<connection from="110527711_1262001741_1262001722_1262000901" to="110527711_1262001722_1262001741_1262001722" />
	<connection from="110527711_1262001741_1262001722_1262000901" to="665652558_1262001722_6230823290_1262001722" />
	<connection from="110527711_1262001741_1262001722_1262000901" to="110527711_1262001722_1157398909_1262001722" />
	<connection from="674717009_1972777747_1972778008_1972777747" to="180378638_1972778008_6230823290_1972778008" />
	<connection from="674717009_1972777747_1972778008_1972777747" to="674717009_1972778008_1972777747_1972778008" />
	<connection from="100119731_1157398863_1157398397_1157398863" to="100119731_1157398397_1157398863_1157398397" />
	<connection from="100119731_1157398863_1157398397_1157398863" to="100119733_1157398397_1157398909_1157398397" />
	<connection from="100119731_1157398863_1157398397_1157398863" to="100119731_1157398397_1157398790_1157398397" />
	<connection from="665651616_1157398909_6230820573_1157398909" to="665651616_1157398909_6230820573_6230820575" />
	<connection from="665651616_1157398909_6230820573_6230820575" to="665651616_1157398909_6230820573_6230820574" />
	<connection from="665651616_1157398909_6230820573_6230820574" to="100119731_6230820573_1157398863_6230820573" />
	<connection from="665651616_1157398909_6230820573_6230820574" to="100119731_6230820573_1157398518_6230820573" />
	<connection from="665651616_1157398909_6230820573_6230820574" to="665651616_6230820573_1157398909_6230820573" />
	<connection from="100119731_1157398863_6230820573_1157398863" to="100119731_1157398863_6230820573_1157398666" />
	<connection from="100119731_1157398863_6230820573_1157398666" to="100119731_1157398863_6230820573_1157398872" />
	<connection from="100119731_1157398863_6230820573_1157398872" to="100119731_6230820573_1157398863_6230820573" />
	<connection from="100119731_1157398863_6230820573_1157398872" to="100119731_6230820573_1157398518_6230820573" />
	<connection from="100119731_1157398863_6230820573_1157398872" to="665651616_6230820573_1157398909_6230820573" />
	<connection from="110527711_1157398909_1262001722_1157398909" to="110527711_1157398909_1262001722_1262000715" />
	<connection from="110527711_1157398909_1262001722_1262000715" to="110527711_1157398909_1262001722_1262000996" />
	<connection from="110527711_1157398909_1262001722_1262000996" to="110527711_1157398909_1262001722_1262001905" />
	<connection from="110527711_1157398909_1262001722_1262001905" to="110527711_1157398909_1262001722_1262001967" />
	<connection from="110527711_1157398909_1262001722_1262001967" to="110527711_1157398909_1262001722_1262001618" />
	<connection from="110527711_1157398909_1262001722_1262001618" to="110527711_1157398909_1262001722_1262001794" />
	<connection from="110527711_1157398909_1262001722_1262001794" to="110527711_1157398909_1262001722_1262001136" />
	<connection from="110527711_1157398909_1262001722_1262001136" to="110527711_1157398909_1262001722_1262001341" />
	<connection from="110527711_1157398909_1262001722_1262001341" to="110527711_1157398909_1262001722_1262000590" />
	<connection from="110527711_1157398909_1262001722_1262000590" to="110527711_1157398909_1262001722_1262000806" />
	<connection from="110527711_1157398909_1262001722_1262000806" to="110527711_1157398909_1262001722_1262001845" />
	<connection from="110527711_1157398909_1262001722_1262001845" to="110527711_1157398909_1262001722_1262001880" />
	<connection from="110527711_1157398909_1262001722_1262001880" to="110527711_1157398909_1262001722_1262001443" />
	<connection from="110527711_1157398909_1262001722_1262001443" to="110527711_1262001722_1262001741_1262001722" />
	<connection from="110527711_1157398909_1262001722_1262001443" to="665652558_1262001722_6230823290_1262001722" />
	<connection from="110527711_1157398909_1262001722_1262001443" to="110527711_1262001722_1157398909_1262001722" />
	<connection from="100119698_1157398635_1157398863_1157398635" to="100119698_1157398635_1157398863_1157398855" />
	<connection from="100119698_1157398635_1157398863_1157398855" to="100119698_1157398635_1157398863_1157398170" />
	<connection from="100119698_1157398635_1157398863_1157398170" to="100119698_1157398635_1157398863_1157398956" />
	<connection from="100119698_1157398635_1157398863_1157398956" to="100119698_1157398635_1157398863_1157398444" />
	<connection from="100119698_1157398635_1157398863_1157398444" to="100119698_1157398635_1157398863_1157398726" />
	<connection from="100119698_1157398635_1157398863_1157398726" to="100119698_1157398635_1157398863_1157398896" />
	<connection from="100119698_1157398635_1157398863_1157398896" to="100119698_1157398635_1157398863_1157398821" />
	<connection from="100119698_1157398635_1157398863_1157398821" to="100119698_1157398635_1157398863_1157398104" />
	<connection from="100119698_1157398635_1157398863_1157398104" to="100119698_1157398635_1157398863_1157398498" />
	<connection from="100119698_1157398635_1157398863_1157398498" to="100119698_1157398635_1157398863_1157398779" />
	<connection from="100119698_1157398635_1157398863_1157398779" to="100119698_1157398635_1157398863_1157398646" />
	<connection from="100119698_1157398635_1157398863_1157398646" to="100119698_1157398863_1157398635_1157398863" />
	<connection from="100119698_1157398635_1157398863_1157398646" to="100119731_1157398863_1157398397_1157398863" />
	<connection from="100119698_1157398635_1157398863_1157398646" to="100119731_1157398863_6230820573_1157398863" />
	<connection from="100119733_1157398397_1157398909_1157398397" to="100119733_1157398397_1157398909_1157398648" />
	<connection from="100119733_1157398397_1157398909_1157398648" to="100119733_1157398397_1157398909_1157398377" />
	<connection from="100119733_1157398397_1157398909_1157398377" to="665651616_1157398909_6230820573_1157398909" />
	<connection from="100119733_1157398397_1157398909_1157398377" to="100119733_1157398909_1157398563_1157398909" />
	<connection from="100119733_1157398397_1157398909_1157398377" to="110527711_1157398909_1262001722_1157398909" />
	<connection from="100119733_1157398397_1157398909_1157398377" to="100119733_1157398909_1157398397_1157398909" />
	<connection from="180378638_1972778008_6230823290_1972778008" to="180378638_1972778008_6230823290_991066387" />
	<connection from="180378638_1972778008_6230823290_991066387" to="180378638_1972778008_6230823290_1262001667" />
	<connection from="180378638_1972778008_6230823290_1262001667" to="180378638_1972778008_6230823290_1262001991" />
	<connection from="180378638_1972778008_6230823290_1262001991" to="180378638_1972778008_6230823290_1262001535" />
	<connection from="180378638_1972778008_6230823290_1262001535" to="180378638_1972778008_6230823290_1262000738" />
	<connection from="180378638_1972778008_6230823290_1262000738" to="180378638_1972778008_6230823290_1262001186" />
	<connection from="180378638_1972778008_6230823290_1262001186" to="180378638_1972778008_6230823290_448755894" />
	<connection from="180378638_1972778008_6230823290_448755894" to="180378638_1972778008_6230823290_1262001815" />
	<connection from="180378638_1972778008_6230823290_1262001815" to="180378638_6230823290_1972778008_6230823290" />
	<connection from="180378638_1972778008_6230823290_1262001815" to="180378638_6230823290_1908285512_6230823290" />
	<connection from="180378638_1972778008_6230823290_1262001815" to="665652558_6230823290_1262001722_6230823290" />
	<connection from="110527711_1262001722_1157398909_1262001722" to="110527711_1262001722_1157398909_1262001443" />
	<connection from="110527711_1262001722_1157398909_1262001443" to="110527711_1262001722_1157398909_1262001880" />
	<connection from="110527711_1262001722_1157398909_1262001880" to="110527711_1262001722_1157398909_1262001845" />
	<connection from="110527711_1262001722_1157398909_1262001845" to="110527711_1262001722_1157398909_1262000806" />
	<connection from="110527711_1262001722_1157398909_1262000806" to="110527711_1262001722_1157398909_1262000590" />
	<connection from="110527711_1262001722_1157398909_1262000590" to="110527711_1262001722_1157398909_1262001341" />
	<connection from="110527711_1262001722_1157398909_1262001341" to="110527711_1262001722_1157398909_1262001136" />
	<connection from="110527711_1262001722_1157398909_1262001136" to="110527711_1262001722_1157398909_1262001794" />
	<connection from="110527711_1262001722_1157398909_1262001794" to="110527711_1262001722_1157398909_1262001618" />
	<connection from="110527711_1262001722_1157398909_1262001618" to="110527711_1262001722_1157398909_1262001967" />
	<connection from="110527711_1262001722_1157398909_1262001967" to="110527711_1262001722_1157398909_1262001905" />
	<connection from="110527711_1262001722_1157398909_1262001905" to="110527711_1262001722_1157398909_1262000996" />
	<connection from="110527711_1262001722_1157398909_1262000996" to="110527711_1262001722_1157398909_1262000715" />
	<connection from="110527711_1262001722_1157398909_1262000715" to="665651616_1157398909_6230820573_1157398909" />
	<connection from="110527711_1262001722_1157398909_1262000715" to="100119733_1157398909_1157398563_1157398909" />
	<connection from="110527711_1262001722_1157398909_1262000715" to="110527711_1157398909_1262001722_1157398909" />
	<connection from="110527711_1262001722_1157398909_1262000715" to="100119733_1157398909_1157398397_1157398909" />
	<connection from="432602936_6378477447_448755895_6378477447" to="432602936_6378477447_448755895_448755898" />
	<connection from="432602936_6378477447_448755895_448755898" to="432602936_6378477447_448755895_1084417188" />
	<connection from="432602936_6378477447_448755895_1084417188" to="432602936_6378477447_448755895_448755897" />
	<connection from="432602936_6378477447_448755895_448755897" to="432602936_6378477447_448755895_1084417038" />
	<connection from="432602936_6378477447_448755895_1084417038" to="432602936_6378477447_448755895_448755896" />
	<connection from="432602936_6378477447_448755895_448755896" to="432602936_6378477447_448755895_1084416646" />
	<connection from="432602936_6378477447_448755895_1084416646" to="432602936_6378477447_448755895_1084416790" />
	<connection from="432602936_6378477447_448755895_1084416790" to="432602936_6378477447_448755895_1084417126" />
	<connection from="432602936_6378477447_448755895_1084417126" to="432602936_6378477447_448755895_1084416963" />
	<connection from="432602936_6378477447_448755895_1084416963" to="432602948_448755895_1972777747_448755895" />
	<connection from="432602936_6378477447_448755895_1084416963" to="432602936_448755895_6378477447_448755895" />
	<connection from="110527711_1262001722_1262001741_1262001722" to="110527711_1262001722_1262001741_1262000901" />
	<connection from="110527711_1262001722_1262001741_1262000901" to="110527711_1262001722_1262001741_1262001050" />
	<connection from="110527711_1262001722_1262001741_1262001050" to="110527711_1262001722_1262001741_1262001923" />
	<connection from="110527711_1262001722_1262001741_1262001923" to="110527711_1262001722_1262001741_7391808756" />
	<connection from="110527711_1262001722_1262001741_7391808756" to="110527711_1262001722_1262001741_1262000671" />
	<connection from="110527711_1262001722_1262001741_1262000671" to="110527711_1262001722_1262001741_1262001761" />
	<connection from="110527711_1262001722_1262001741_1262001761" to="110527711_1262001722_1262001741_1262001820" />
	<connection from="110527711_1262001722_1262001741_1262001820" to="110527711_1262001722_1262001741_1262001226" />
	<connection from="110527711_1262001722_1262001741_1262001226" to="110527711_1262001722_1262001741_1262001562" />
	<connection from="110527711_1262001722_1262001741_1262001562" to="110527711_1262001722_1262001741_1262000751" />
	<connection from="110527711_1262001722_1262001741_1262000751" to="110527711_1262001722_1262001741_1262000843" />
	<connection from="110527711_1262001722_1262001741_1262000843" to="110527711_1262001722_1262001741_1262001863" />
	<connection from="110527711_1262001722_1262001741_1262001863" to="110527711_1262001722_1262001741_1262001988" />
	<connection from="110527711_1262001722_1262001741_1262001988" to="110527711_1262001722_1262001741_1262001650" />
	<connection from="110527711_1262001722_1262001741_1262001650" to="110527711_1262001741_1262001722_1262001741" />
	<connection from="100119731_1157398790_1157398397_1157398790" to="100119731_1157398790_1157398397_1157398983" />
	<connection from="100119731_1157398790_1157398397_1157398983" to="100119731_1157398790_1157398397_1157398464" />
	<connection from="100119731_1157398790_1157398397_1157398464" to="100119731_1157398790_1157398397_1157398261" />
	<connection from="100119731_1157398790_1157398397_1157398261" to="100119731_1157398790_1157398397_1157398581" />
	<connection from="100119731_1157398790_1157398397_1157398581" to="100119731_1157398790_1157398397_1157398835" />
	<connection from="100119731_1157398790_1157398397_1157398835" to="100119731_1157398790_1157398397_1157398125" />
	<connection from="100119731_1157398790_1157398397_1157398125" to="100119731_1157398790_1157398397_1157398921" />
	<connection from="100119731_1157398790_1157398397_1157398921" to="100119731_1157398397_1157398863_1157398397" />
	<connection from="100119731_1157398790_1157398397_1157398921" to="100119733_1157398397_1157398909_1157398397" />
	<connection from="100119731_1157398790_1157398397_1157398921" to="100119731_1157398397_1157398790_1157398397" />
	<connection from="100119731_6230820573_1157398518_6230820573" to="100119731_6230820573_1157398518_1157398797" />
	<connection from="100119731_6230820573_1157398518_1157398797" to="100119731_6230820573_1157398518_1157398052" />
	<connection from="100119731_6230820573_1157398518_1157398052" to="100119731_6230820573_1157398518_1157398475" />
	<connection from="100119731_6230820573_1157398518_1157398475" to="100119731_6230820573_1157398518_1157398751" />
	<connection from="100119731_6230820573_1157398518_1157398751" to="100119731_6230820573_1157398518_1157398607" />
	<connection from="100119731_6230820573_1157398518_1157398607" to="100119731_6230820573_1157398518_1157398844" />
	<connection from="100119731_6230820573_1157398518_1157398844" to="100119731_6230820573_1157398518_1157398137" />
	<connection from="100119731_6230820573_1157398518_1157398137" to="100119731_1157398518_6230820573_1157398518" />
	<connection from="100119733_1157398909_1157398397_1157398909" to="100119733_1157398909_1157398397_1157398377" />
	<connection from="100119733_1157398909_1157398397_1157398377" to="100119733_1157398909_1157398397_1157398648" />
	<connection from="100119733_1157398909_1157398397_1157398648" to="100119731_1157398397_1157398863_1157398397" />
	<connection from="100119733_1157398909_1157398397_1157398648" to="100119733_1157398397_1157398909_1157398397" />
	<connection from="100119733_1157398909_1157398397_1157398648" to="100119731_1157398397_1157398790_1157398397" />
	<connection from="180378638_1908285512_6230823290_1908285512" to="180378638_1908285512_6230823290_1908285508" />
	<connection from="180378638_1908285512_6230823290_1908285508" to="180378638_1908285512_6230823290_1908285553" />
	<connection from="180378638_1908285512_6230823290_1908285553" to="180378638_1908285512_6230823290_1908285510" />
	<connection from="180378638_1908285512_6230823290_1908285510" to="180378638_1908285512_6230823290_1262001872" />
	<connection from="180378638_1908285512_6230823290_1262001872" to="180378638_1908285512_6230823290_1908285513" />
	<connection from="180378638_1908285512_6230823290_1908285513" to="180378638_1908285512_6230823290_1908285520" />
	<connection from="180378638_1908285512_6230823290_1908285520" to="180378638_1908285512_6230823290_1908285532" />
	<connection from="180378638_1908285512_6230823290_1908285532" to="180378638_1908285512_6230823290_1908285536" />
	<connection from="180378638_1908285512_6230823290_1908285536" to="180378638_1908285512_6230823290_1908285538" />
	<connection from="180378638_1908285512_6230823290_1908285538" to="180378638_1908285512_6230823290_1908285505" />
	<connection from="180378638_1908285512_6230823290_1908285505" to="180378638_1908285512_6230823290_1908285550" />
	<connection from="180378638_1908285512_6230823290_1908285550" to="180378638_1908285512_6230823290_1908285525" />
	<connection from="180378638_1908285512_6230823290_1908285525" to="180378638_1908285512_6230823290_1262001753" />
	<connection from="180378638_1908285512_6230823290_1262001753" to="180378638_1908285512_6230823290_1262000654" />
	<connection from="180378638_1908285512_6230823290_1262000654" to="180378638_1908285512_6230823290_448755893" />
	<connection from="180378638_1908285512_6230823290_448755893" to="180378638_6230823290_1972778008_6230823290" />
	<connection from="180378638_1908285512_6230823290_448755893" to="180378638_6230823290_1908285512_6230823290" />
	<connection from="180378638_1908285512_6230823290_448755893" to="665652558_6230823290_1262001722_6230823290" />
	<connection from="180378638_6230823290_1908285512_6230823290" to="180378638_6230823290_1908285512_448755893" />
	<connection from="180378638_6230823290_1908285512_448755893" to="180378638_6230823290_1908285512_1262000654" />
	<connection from="180378638_6230823290_1908285512_1262000654" to="180378638_6230823290_1908285512_1262001753" />
	<connection from="180378638_6230823290_1908285512_1262001753" to="180378638_6230823290_1908285512_1908285525" />
	<connection from="180378638_6230823290_1908285512_1908285525" to="180378638_6230823290_1908285512_1908285550" />
	<connection from="180378638_6230823290_1908285512_1908285550" to="180378638_6230823290_1908285512_1908285505" />
	<connection from="180378638_6230823290_1908285512_1908285505" to="180378638_6230823290_1908285512_1908285538" />
	<connection from="180378638_6230823290_1908285512_1908285538" to="180378638_6230823290_1908285512_1908285536" />
	<connection from="180378638_6230823290_1908285512_1908285536" to="180378638_6230823290_1908285512_1908285532" />
	<connection from="180378638_6230823290_1908285512_1908285532" to="180378638_6230823290_1908285512_1908285520" />
	<connection from="180378638_6230823290_1908285512_1908285520" to="180378638_6230823290_1908285512_1908285513" />
	<connection from="180378638_6230823290_1908285512_1908285513" to="180378638_6230823290_1908285512_1262001872" />
	<connection from="180378638_6230823290_1908285512_1262001872" to="180378638_6230823290_1908285512_1908285510" />
	<connection from="180378638_6230823290_1908285512_1908285510" to="180378638_6230823290_1908285512_1908285553" />
	<connection from="180378638_6230823290_1908285512_1908285553" to="180378638_6230823290_1908285512_1908285508" />
	<connection from="180378638_6230823290_1908285512_1908285508" to="180378638_1908285512_6230823290_1908285512" />
	<connection from="432602936_448755895_6378477447_448755895" to="432602936_448755895_6378477447_1084416963" />
	<connection from="432602936_448755895_6378477447_1084416963" to="432602936_448755895_6378477447_1084417126" />
	<connection from="432602936_448755895_6378477447_1084417126" to="432602936_448755895_6378477447_1084416790" />
	<connection from="432602936_448755895_6378477447_1084416790" to="432602936_448755895_6378477447_1084416646" />
	<connection from="432602936_448755895_6378477447_1084416646" to="432602936_448755895_6378477447_448755896" />
	<connection from="432602936_448755895_6378477447_448755896" to="432602936_448755895_6378477447_1084417038" />
	<connection from="432602936_448755895_6378477447_1084417038" to="432602936_448755895_6378477447_448755897" />
	<connection from="432602936_448755895_6378477447_448755897" to="432602936_448755895_6378477447_1084417188" />
	<connection from="432602936_448755895_6378477447_1084417188" to="432602936_448755895_6378477447_448755898" />
	<connection from="432602936_448755895_6378477447_448755898" to="432602936_6378477447_448755895_6378477447" />
	<connection from="665652558_1262001722_6230823290_1262001722" to="665652558_1262001722_6230823290_6230820379" />
	<connection from="665652558_1262001722_6230823290_6230820379" to="665652558_1262001722_6230823290_6230820380" />
	<connection from="665652558_1262001722_6230823290_6230820380" to="665652558_1262001722_6230823290_6230820381" />
	<connection from="665652558_1262001722_6230823290_6230820381" to="665652558_1262001722_6230823290_6230820382" />
	<connection from="665652558_1262001722_6230823290_6230820382" to="665652558_1262001722_6230823290_6230820383" />
	<connection from="665652558_1262001722_6230823290_6230820383" to="665652558_1262001722_6230823290_6230820384" />
	<connection from="665652558_1262001722_6230823290_6230820384" to="665652558_1262001722_6230823290_6230823285" />
	<connection from="665652558_1262001722_6230823290_6230823285" to="665652558_1262001722_6230823290_6230823286" />
	<connection from="665652558_1262001722_6230823290_6230823286" to="665652558_1262001722_6230823290_6230823287" />
	<connection from="665652558_1262001722_6230823290_6230823287" to="665652558_1262001722_6230823290_6230823288" />
	<connection from="665652558_1262001722_6230823290_6230823288" to="665652558_1262001722_6230823290_6230823289" />
	<connection from="665652558_1262001722_6230823290_6230823289" to="180378638_6230823290_1972778008_6230823290" />
	<connection from="665652558_1262001722_6230823290_6230823289" to="180378638_6230823290_1908285512_6230823290" />
	<connection from="665652558_1262001722_6230823290_6230823289" to="665652558_6230823290_1262001722_6230823290" />
	<connection from="100119731_6230820573_1157398863_6230820573" to="100119731_6230820573_1157398863_1157398872" />
	<connection from="100119731_6230820573_1157398863_1157398872" to="100119731_6230820573_1157398863_1157398666" />
	<connection from="100119731_6230820573_1157398863_1157398666" to="100119698_1157398863_1157398635_1157398863" />
	<connection from="100119731_6230820573_1157398863_1157398666" to="100119731_1157398863_1157398397_1157398863" />
	<connection from="100119731_6230820573_1157398863_1157398666" to="100119731_1157398863_6230820573_1157398863" />
	<connection from="432602948_1972777747_448755895_1972777747" to="432602948_1972777747_448755895_1972777418" />
	<connection from="432602948_1972777747_448755895_1972777418" to="432602948_448755895_1972777747_448755895" />
	<connection from="432602948_1972777747_448755895_1972777418" to="432602936_448755895_6378477447_448755895" />
	<connection from="432602948_448755895_1972777747_448755895" to="432602948_448755895_1972777747_1972777418" />
	<connection from="432602948_448755895_1972777747_1972777418" to="674717009_1972777747_1972778008_1972777747" />
	<connection from="432602948_448755895_1972777747_1972777418" to="432602948_1972777747_448755895_1972777747" />
	<connection from="100119733_1157398563_1157398909_1157398563" to="100119733_1157398563_1157398909_1157398826" />
	<connection from="100119733_1157398563_1157398909_1157398826" to="100119733_1157398563_1157398909_1157398738" />
	<connection from="100119733_1157398563_1157398909_1157398738" to="665651616_1157398909_6230820573_1157398909" />
	<connection from="100119733_1157398563_1157398909_1157398738" to="100119733_1157398909_1157398563_1157398909" />
	<connection from="100119733_1157398563_1157398909_1157398738" to="110527711_1157398909_1262001722_1157398909" />
	<connection from="100119733_1157398563_1157398909_1157398738" to="100119733_1157398909_1157398397_1157398909" />
	<connection from="180378638_6230823290_1972778008_6230823290" to="180378638_6230823290_1972778008_1262001815" />
	<connection from="180378638_6230823290_1972778008_1262001815" to="180378638_6230823290_1972778008_448755894" />
	<connection from="180378638_6230823290_1972778008_448755894" to="180378638_6230823290_1972778008_1262001186" />
	<connection from="180378638_6230823290_1972778008_1262001186" to="180378638_6230823290_1972778008_1262000738" />
	<connection from="180378638_6230823290_1972778008_1262000738" to="180378638_6230823290_1972778008_1262001535" />
	<connection from="180378638_6230823290_1972778008_1262001535" to="180378638_6230823290_1972778008_1262001991" />
	<connection from="180378638_6230823290_1972778008_1262001991" to="180378638_6230823290_1972778008_1262001667" />
	<connection from="180378638_6230823290_1972778008_1262001667" to="180378638_6230823290_1972778008_991066387" />
	<connection from="180378638_6230823290_1972778008_991066387" to="180378638_1972778008_6230823290_1972778008" />
	<connection from="180378638_6230823290_1972778008_991066387" to="674717009_1972778008_1972777747_1972778008" />
	<connection from="665651616_6230820573_1157398909_6230820573" to="665651616_6230820573_1157398909_6230820574" />
	<connection from="665651616_6230820573_1157398909_6230820574" to="665651616_6230820573_1157398909_6230820575" />
	<connection from="665651616_6230820573_1157398909_6230820575" to="665651616_1157398909_6230820573_1157398909" />
	<connection from="665651616_6230820573_1157398909_6230820575" to="100119733_1157398909_1157398563_1157398909" />
	<connection from="665651616_6230820573_1157398909_6230820575" to="110527711_1157398909_1262001722_1157398909" />