<?xml version="1.0" encoding="UTF-8"?>

<!-- generated on Mon Jul 13 18:44:14 2020 by Eclipse SUMO netconvert Version 1.2.0
<configuration xmlns:xsi="http://www.w3.org/2001/XMLSchema-instance" xsi:noNamespaceSchemaLocation="http://sumo.dlr.de/xsd/netconvertConfiguration.xsd">

    <input>
        <node-files value="/home/vsimrti/scenarios/ids/sumo/gualtar14/gualtar14.nod.xml"/>
        <edge-files value="/home/vsimrti/scenarios/ids/sumo/gualtar14/gualtar14.edg.xml"/>
        <connection-files value="/home/vsimrti/scenarios/ids/sumo/gualtar14/gualtar14.con.xml"/>
    </input>

    <output>
        <output-file value="/home/vsimrti/scenarios/ids/sumo/gualtar14/gualtar14.net.xml"/>
    </output>

</configuration>
-->

<net version="1.1" junctionCornerDetail="5" limitTurnSpeed="5.50" xmlns:xsi="http://www.w3.org/2001/XMLSchema-instance" xsi:noNamespaceSchemaLocation="http://sumo.dlr.de/xsd/net_file.xsd">

    <location netOffset="-600232.35,-4110903.06" convBoundary="0.00,0.00,1514.03,1685.78" origBoundary="600232.35,4110903.06,601746.38,4112588.85" projParameter="!"/>

    <edge id=":1084416646_0" function="internal">
        <lane id=":1084416646_0_0" index="0" speed="13.89" length="1.07" shape="1431.14,562.18 1431.01,561.89 1430.93,561.69 1430.88,561.48 1430.81,561.17"/>
    </edge>
    <edge id=":1084416646_1" function="internal">
        <lane id=":1084416646_1_0" index="0" speed="13.89" length="0.36" shape="1433.94,560.51 1433.96,560.61 1433.98,560.68 1434.01,560.75 1434.05,560.85"/>
    </edge>
    <edge id=":1084416790_0" function="internal">
        <lane id=":1084416790_0_0" index="0" speed="13.89" length="0.31" shape="1455.73,615.71 1455.60,615.43"/>
    </edge>
    <edge id=":1084416790_1" function="internal">
        <lane id=":1084416790_1_0" index="0" speed="13.89" length="0.27" shape="1458.51,614.09 1458.62,614.34"/>
    </edge>
    <edge id=":1084416963_0" function="internal">
        <lane id=":1084416963_0_0" index="0" speed="13.89" length="0.37" shape="1509.47,735.29 1509.46,735.18 1509.44,735.11 1509.42,735.04 1509.38,734.93"/>
    </edge>
    <edge id=":1084416963_1" function="internal">
        <lane id=":1084416963_1_0" index="0" speed="13.89" length="1.12" shape="1512.39,733.83 1512.50,734.15 1512.57,734.37 1512.61,734.59 1512.65,734.92"/>
    </edge>
    <edge id=":1084417038_0" function="internal">
        <lane id=":1084417038_0_0" index="0" speed="13.89" length="0.31" shape="1412.39,421.03 1412.38,420.72"/>
    </edge>
    <edge id=":1084417038_1" function="internal">
        <lane id=":1084417038_1_0" index="0" speed="13.89" length="0.10" shape="1415.58,420.75 1415.58,420.85"/>
    </edge>
    <edge id=":1084417126_0" function="internal">
        <lane id=":1084417126_0_0" index="0" speed="13.89" length="0.15" shape="1500.01,709.25 1499.99,709.21 1499.98,709.18 1499.97,709.16 1499.95,709.12"/>
    </edge>
    <edge id=":1084417126_1" function="internal">
        <lane id=":1084417126_1_0" index="0" speed="13.89" length="0.44" shape="1502.84,707.75 1502.90,707.87 1502.94,707.95 1502.97,708.03 1503.02,708.16"/>
    </edge>
    <edge id=":1084417188_0" function="internal">
        <lane id=":1084417188_0_0" index="0" speed="13.89" length="0.15" shape="1421.04,217.13 1421.03,217.28"/>
    </edge>
    <edge id=":1084417188_1" function="internal">
        <lane id=":1084417188_1_0" index="0" speed="13.89" length="0.28" shape="1417.83,217.15 1417.85,216.87"/>
    </edge>
    <edge id=":1157398052_0" function="internal">
        <lane id=":1157398052_0_0" index="0" speed="8.33" length="0.13" shape="345.88,1176.70 345.76,1176.71"/>
    </edge>
    <edge id=":1157398052_1" function="internal">
        <lane id=":1157398052_1_0" index="0" speed="8.33" length="0.38" shape="345.36,1173.53 345.74,1173.50"/>
    </edge>
    <edge id=":1157398104_0" function="internal">
        <lane id=":1157398104_0_0" index="0" speed="4.11" length="1.42" shape="410.92,1251.72 410.61,1251.92 410.37,1252.17 410.19,1252.46 410.08,1252.81"/>
    </edge>
    <edge id=":1157398104_1" function="internal">
        <lane id=":1157398104_1_0" index="0" speed="6.47" length="4.27" shape="406.95,1252.14 407.29,1251.10 407.82,1250.21 408.54,1249.46 409.46,1248.87"/>
    </edge>
    <edge id=":1157398125_0" function="internal">
        <lane id=":1157398125_0_0" index="0" speed="8.33" length="0.10" shape="612.28,1206.50 612.20,1206.48"/>
    </edge>
    <edge id=":1157398125_1" function="internal">
        <lane id=":1157398125_1_0" index="0" speed="8.33" length="0.10" shape="613.02,1203.39 612.94,1203.37"/>
    </edge>
    <edge id=":1157398137_0" function="internal">
        <lane id=":1157398137_0_0" index="0" speed="8.33" length="0.37" shape="35.47,1212.40 35.37,1212.45 35.30,1212.49 35.24,1212.53 35.15,1212.60"/>
    </edge>
    <edge id=":1157398137_1" function="internal">
        <lane id=":1157398137_1_0" index="0" speed="8.33" length="1.12" shape="33.18,1210.07 33.45,1209.87 33.63,1209.74 33.83,1209.64 34.14,1209.49"/>
    </edge>
    <edge id=":1157398170_0" function="internal">
        <lane id=":1157398170_0_0" index="0" speed="8.33" length="0.10" shape="386.16,1360.02 386.25,1359.99"/>
    </edge>
    <edge id=":1157398170_1" function="internal">
        <lane id=":1157398170_1_0" index="0" speed="8.33" length="0.10" shape="385.06,1357.02 385.15,1356.99"/>
    </edge>
    <edge id=":1157398261_0" function="internal">
        <lane id=":1157398261_0_0" index="0" speed="8.33" length="0.95" shape="802.02,1209.01 801.74,1209.06 801.55,1209.09 801.35,1209.10 801.07,1209.09"/>
    </edge>
    <edge id=":1157398261_1" function="internal">
        <lane id=":1157398261_1_0" index="0" speed="8.33" length="0.32" shape="801.11,1205.89 801.20,1205.89 801.27,1205.89 801.33,1205.88 801.42,1205.87"/>
    </edge>
    <edge id=":1157398377_0" function="internal">
        <lane id=":1157398377_0_0" index="0" speed="6.49" length="4.20" shape="550.07,1172.41 550.50,1173.40 550.69,1174.41 550.64,1175.43 550.35,1176.47"/>
    </edge>
    <edge id=":1157398377_1" function="internal">
        <lane id=":1157398377_1_0" index="0" speed="4.12" length="1.40" shape="547.37,1175.32 547.46,1174.97 547.48,1174.63 547.41,1174.30 547.27,1173.97"/>
    </edge>
    <edge id=":1157398397_0" function="internal">
        <lane id=":1157398397_0_0" index="0" speed="8.33" length="21.70" shape="544.78,1196.83 540.01,1197.41 533.99,1198.09 527.97,1198.66 523.18,1198.93"/>
    </edge>
    <edge id=":1157398397_1" function="internal">
        <lane id=":1157398397_1_0" index="0" speed="6.32" length="4.44" shape="544.78,1196.83 540.80,1196.03 540.55,1195.74"/>
    </edge>
    <edge id=":1157398397_2" function="internal">
        <lane id=":1157398397_2_0" index="0" speed="3.65" length="2.34" shape="544.78,1196.83 543.49,1196.19 542.99,1195.44"/>
    </edge>
    <edge id=":1157398397_9" function="internal">
        <lane id=":1157398397_9_0" index="0" speed="6.32" length="10.93" shape="540.55,1195.74 538.48,1193.24 538.29,1189.62 540.67,1186.33"/>
    </edge>
    <edge id=":1157398397_10" function="internal">
        <lane id=":1157398397_10_0" index="0" speed="3.65" length="2.34" shape="542.99,1195.44 543.29,1194.60 544.39,1193.66"/>
    </edge>
    <edge id=":1157398397_3" function="internal">
        <lane id=":1157398397_3_0" index="0" speed="5.55" length="11.44" shape="542.54,1188.93 539.53,1191.47 538.83,1193.10 540.45,1193.83 544.39,1193.66"/>
    </edge>
    <edge id=":1157398397_4" function="internal">
        <lane id=":1157398397_4_0" index="0" speed="8.33" length="21.96" shape="542.54,1188.93 538.50,1191.71 533.21,1195.00 527.75,1197.75 523.18,1198.93"/>
    </edge>
    <edge id=":1157398397_5" function="internal">
        <lane id=":1157398397_5_0" index="0" speed="3.65" length="4.67" shape="542.54,1188.93 541.10,1188.98 540.30,1188.56 540.16,1187.68 540.67,1186.33"/>
    </edge>
    <edge id=":1157398397_6" function="internal">
        <lane id=":1157398397_6_0" index="0" speed="8.33" length="20.08" shape="523.15,1195.73 527.42,1194.64 532.26,1192.10 536.92,1189.02 540.67,1186.33"/>
    </edge>
    <edge id=":1157398397_7" function="internal">
        <lane id=":1157398397_7_0" index="0" speed="8.33" length="21.35" shape="523.15,1195.73 527.88,1195.46 533.78,1194.90 539.68,1194.23 544.39,1193.66"/>
    </edge>
    <edge id=":1157398397_8" function="internal">
        <lane id=":1157398397_8_0" index="0" speed="3.65" length="2.34" shape="523.15,1195.73 524.35,1196.51 524.76,1197.31"/>
    </edge>
    <edge id=":1157398397_11" function="internal">
        <lane id=":1157398397_11_0" index="0" speed="3.65" length="2.34" shape="524.76,1197.31 524.37,1198.11 523.18,1198.93"/>
    </edge>
    <edge id=":1157398444_0" function="internal">
        <lane id=":1157398444_0_0" index="0" speed="8.33" length="1.98" shape="411.13,1341.42 411.03,1342.00 410.93,1342.39 410.75,1342.75 410.45,1343.25"/>
    </edge>
    <edge id=":1157398444_1" function="internal">
        <lane id=":1157398444_1_0" index="0" speed="8.33" length="0.66" shape="407.74,1341.55 407.84,1341.38 407.90,1341.26 407.93,1341.13 407.96,1340.94"/>
    </edge>
    <edge id=":1157398464_0" function="internal">
        <lane id=":1157398464_0_0" index="0" speed="8.33" length="0.29" shape="837.97,1202.26 837.89,1202.26 837.83,1202.27 837.77,1202.27 837.69,1202.29"/>
    </edge>
    <edge id=":1157398464_1" function="internal">
        <lane id=":1157398464_1_0" index="0" speed="8.33" length="0.86" shape="837.10,1199.15 837.35,1199.10 837.52,1199.08 837.69,1199.07 837.95,1199.06"/>
    </edge>
    <edge id=":1157398475_0" function="internal">
        <lane id=":1157398475_0_0" index="0" speed="8.33" length="0.30" shape="279.32,1184.98 279.02,1185.01"/>
    </edge>
    <edge id=":1157398475_1" function="internal">
        <lane id=":1157398475_1_0" index="0" speed="8.33" length="0.10" shape="278.83,1181.82 278.93,1181.81"/>
    </edge>
    <edge id=":1157398498_0" function="internal">
        <lane id=":1157398498_0_0" index="0" speed="8.33" length="1.19" shape="436.13,1238.68 435.86,1238.91 435.67,1239.06 435.46,1239.18 435.15,1239.34"/>
    </edge>
    <edge id=":1157398498_1" function="internal">
        <lane id=":1157398498_1_0" index="0" speed="8.33" length="0.40" shape="433.69,1236.49 433.80,1236.44 433.87,1236.40 433.93,1236.35 434.02,1236.27"/>
    </edge>
    <edge id=":1157398518_0" function="internal">
        <lane id=":1157398518_0_0" index="0" speed="3.65" length="4.67" shape="0.98,1239.24 -0.45,1239.35 -1.26,1238.96 -1.44,1238.09 -0.98,1236.72"/>
    </edge>
    <edge id=":1157398563_0" function="internal">
        <lane id=":1157398563_0_0" index="0" speed="3.65" length="4.67" shape="499.84,921.54 500.47,920.24 501.21,919.73 502.05,920.02 503.01,921.10"/>
    </edge>
    <edge id=":1157398581_0" function="internal">
        <lane id=":1157398581_0_0" index="0" speed="8.33" length="0.26" shape="718.65,1208.11 718.57,1208.11 718.52,1208.11 718.47,1208.11 718.39,1208.12"/>
    </edge>
    <edge id=":1157398581_1" function="internal">
        <lane id=":1157398581_1_0" index="0" speed="8.33" length="0.78" shape="717.91,1204.96 718.14,1204.93 718.30,1204.91 718.46,1204.90 718.69,1204.91"/>
    </edge>
    <edge id=":1157398607_0" function="internal">
        <lane id=":1157398607_0_0" index="0" speed="8.33" length="0.15" shape="105.16,1194.35 105.11,1194.35 105.08,1194.36 105.05,1194.36 105.00,1194.37"/>
    </edge>
    <edge id=":1157398607_1" function="internal">
        <lane id=":1157398607_1_0" index="0" speed="8.33" length="0.46" shape="104.56,1191.20 104.70,1191.18 104.79,1191.17 104.88,1191.16 105.02,1191.15"/>
    </edge>
    <edge id=":1157398635_0" function="internal">
        <lane id=":1157398635_0_0" index="0" speed="3.65" length="4.67" shape="368.99,1369.10 367.56,1369.24 366.74,1368.87 366.55,1367.99 366.98,1366.62"/>
    </edge>
    <edge id=":1157398646_0" function="internal">
        <lane id=":1157398646_0_0" index="0" speed="7.27" length="2.83" shape="471.68,1212.18 471.09,1212.76 470.62,1213.11 470.08,1213.32 469.27,1213.52"/>
    </edge>
    <edge id=":1157398646_1" function="internal">
        <lane id=":1157398646_1_0" index="0" speed="8.33" length="0.94" shape="468.59,1210.39 468.86,1210.33 469.04,1210.26 469.19,1210.14 469.39,1209.95"/>
    </edge>
    <edge id=":1157398648_0" function="internal">
        <lane id=":1157398648_0_0" index="0" speed="7.28" length="2.82" shape="547.22,1184.60 546.91,1185.36 546.61,1185.86 546.20,1186.27 545.54,1186.77"/>
    </edge>
    <edge id=":1157398648_1" function="internal">
        <lane id=":1157398648_1_0" index="0" speed="8.33" length="0.94" shape="543.67,1184.17 543.89,1184.01 544.03,1183.87 544.13,1183.70 544.23,1183.45"/>
    </edge>
    <edge id=":1157398666_0" function="internal">
        <lane id=":1157398666_0_0" index="0" speed="7.13" length="2.99" shape="478.42,1199.46 477.54,1199.45 476.93,1199.35 476.37,1199.09 475.63,1198.61"/>
    </edge>
    <edge id=":1157398666_1" function="internal">
        <lane id=":1157398666_1_0" index="0" speed="8.33" length="1.00" shape="477.45,1195.97 477.70,1196.14 477.88,1196.22 478.08,1196.25 478.38,1196.26"/>
    </edge>
    <edge id=":1157398726_0" function="internal">
        <lane id=":1157398726_0_0" index="0" speed="8.33" length="0.52" shape="415.54,1312.23 415.54,1312.38 415.53,1312.49 415.51,1312.59 415.49,1312.74"/>
    </edge>
    <edge id=":1157398726_1" function="internal">
        <lane id=":1157398726_1_0" index="0" speed="8.33" length="0.17" shape="412.33,1312.26 412.34,1312.21 412.34,1312.18 412.34,1312.14 412.35,1312.09"/>
    </edge>
    <edge id=":1157398738_0" function="internal">
        <lane id=":1157398738_0_0" index="0" speed="6.28" length="5.19" shape="523.83,1156.87 522.68,1156.16 521.84,1155.24 521.31,1154.11 521.08,1152.78"/>
    </edge>
    <edge id=":1157398738_1" function="internal">
        <lane id=":1157398738_1_0" index="0" speed="4.01" length="1.73" shape="524.27,1152.61 524.35,1153.05 524.53,1153.43 524.81,1153.74 525.19,1153.97"/>
    </edge>
    <edge id=":1157398751_0" function="internal">
        <lane id=":1157398751_0_0" index="0" speed="8.33" length="0.31" shape="173.13,1191.47 172.82,1191.49"/>
    </edge>
    <edge id=":1157398751_1" function="internal">
        <lane id=":1157398751_1_0" index="0" speed="8.33" length="0.25" shape="172.68,1188.29 172.93,1188.28"/>
    </edge>
    <edge id=":1157398779_0" function="internal">
        <lane id=":1157398779_0_0" index="0" speed="8.33" length="0.81" shape="463.70,1214.75 463.47,1214.80 463.32,1214.86 463.18,1214.95 462.99,1215.11"/>
    </edge>
    <edge id=":1157398779_1" function="internal">
        <lane id=":1157398779_1_0" index="0" speed="7.74" length="2.44" shape="460.88,1212.70 461.43,1212.24 461.85,1211.96 462.32,1211.79 463.02,1211.62"/>
    </edge>
    <edge id=":1157398790_0" function="internal">
        <lane id=":1157398790_0_0" index="0" speed="3.65" length="4.67" shape="890.38,1203.96 891.34,1205.03 891.53,1205.90 890.95,1206.58 889.59,1207.06"/>
    </edge>
    <edge id=":1157398797_0" function="internal">
        <lane id=":1157398797_0_0" index="0" speed="8.33" length="0.31" shape="420.30,1173.38 420.21,1173.37 420.14,1173.36 420.08,1173.36 419.99,1173.37"/>
    </edge>
    <edge id=":1157398797_1" function="internal">
        <lane id=":1157398797_1_0" index="0" speed="8.33" length="0.92" shape="419.85,1170.17 420.12,1170.16 420.31,1170.16 420.49,1170.18 420.76,1170.22"/>
    </edge>
    <edge id=":1157398821_0" function="internal">
        <lane id=":1157398821_0_0" index="0" speed="7.66" length="2.49" shape="405.23,1263.15 405.03,1262.44 404.95,1261.94 404.98,1261.43 405.12,1260.71"/>
    </edge>
    <edge id=":1157398821_1" function="internal">
        <lane id=":1157398821_1_0" index="0" speed="8.33" length="0.83" shape="408.25,1261.38 408.20,1261.62 408.19,1261.79 408.22,1261.96 408.29,1262.19"/>
    </edge>
    <edge id=":1157398826_0" function="internal">
        <lane id=":1157398826_0_0" index="0" speed="8.33" length="0.13" shape="514.53,1028.21 514.52,1028.08"/>
    </edge>
    <edge id=":1157398826_1" function="internal">
        <lane id=":1157398826_1_0" index="0" speed="8.33" length="0.40" shape="517.69,1027.64 517.72,1028.04"/>
    </edge>
    <edge id=":1157398835_0" function="internal">
        <lane id=":1157398835_0_0" index="0" speed="8.33" length="1.73" shape="661.96,1216.70 661.45,1216.77 661.10,1216.79 660.74,1216.75 660.24,1216.65"/>
    </edge>
    <edge id=":1157398835_1" function="internal">
        <lane id=":1157398835_1_0" index="0" speed="8.33" length="0.58" shape="660.90,1213.52 661.07,1213.55 661.19,1213.56 661.31,1213.56 661.48,1213.53"/>
    </edge>
    <edge id=":1157398844_0" function="internal">
        <lane id=":1157398844_0_0" index="0" speed="8.33" length="0.47" shape="61.96,1200.35 61.82,1200.37 61.73,1200.39 61.64,1200.42 61.51,1200.48"/>
    </edge>
    <edge id=":1157398844_1" function="internal">
        <lane id=":1157398844_1_0" index="0" speed="8.33" length="1.40" shape="60.18,1197.57 60.56,1197.40 60.83,1197.30 61.10,1197.24 61.52,1197.18"/>
    </edge>
    <edge id=":1157398855_0" function="internal">
        <lane id=":1157398855_0_0" index="0" speed="8.33" length="0.48" shape="374.47,1364.75 374.34,1364.80 374.26,1364.84 374.18,1364.90 374.06,1364.99"/>
    </edge>
    <edge id=":1157398855_1" function="internal">
        <lane id=":1157398855_1_0" index="0" speed="8.33" length="1.43" shape="372.05,1362.50 372.38,1362.24 372.62,1362.07 372.88,1361.94 373.28,1361.78"/>
    </edge>
    <edge id=":1157398863_0" function="internal">
        <lane id=":1157398863_0_0" index="0" speed="8.33" length="8.84" shape="488.78,1199.33 486.53,1199.57 484.47,1200.21 482.57,1201.27 480.86,1202.74"/>
    </edge>
    <edge id=":1157398863_1" function="internal">
        <lane id=":1157398863_1_0" index="0" speed="8.33" length="9.33" shape="488.78,1199.33 479.45,1199.45"/>
    </edge>
    <edge id=":1157398863_2" function="internal">
        <lane id=":1157398863_2_0" index="0" speed="3.65" length="2.34" shape="488.78,1199.33 487.57,1198.55 487.16,1197.75"/>
    </edge>
    <edge id=":1157398863_9" function="internal">
        <lane id=":1157398863_9_0" index="0" speed="3.65" length="2.34" shape="487.16,1197.75 487.55,1196.95 488.74,1196.14"/>
    </edge>
    <edge id=":1157398863_3" function="internal">
        <lane id=":1157398863_3_0" index="0" speed="8.33" length="9.33" shape="479.41,1196.25 488.74,1196.14"/>
    </edge>
    <edge id=":1157398863_4" function="internal">
        <lane id=":1157398863_4_0" index="0" speed="5.68" length="4.80" shape="479.41,1196.25 482.44,1196.62 483.70,1197.82"/>
    </edge>
    <edge id=":1157398863_5" function="internal">
        <lane id=":1157398863_5_0" index="0" speed="3.65" length="2.34" shape="479.41,1196.25 480.62,1197.03 481.03,1197.83"/>
    </edge>
    <edge id=":1157398863_10" function="internal">
        <lane id=":1157398863_10_0" index="0" speed="5.68" length="5.79" shape="483.70,1197.82 483.17,1199.86 480.86,1202.74"/>
    </edge>
    <edge id=":1157398863_11" function="internal">
        <lane id=":1157398863_11_0" index="0" speed="3.65" length="2.34" shape="481.03,1197.83 480.64,1198.63 479.45,1199.45"/>
    </edge>
    <edge id=":1157398863_6" function="internal">
        <lane id=":1157398863_6_0" index="0" speed="2.98" length="1.71" shape="478.57,1200.50 479.00,1200.13 479.45,1199.79 479.67,1199.54 479.45,1199.45"/>
    </edge>
    <edge id=":1157398863_7" function="internal">
        <lane id=":1157398863_7_0" index="0" speed="8.33" length="11.36" shape="478.57,1200.50 480.77,1198.62 483.20,1197.26 485.86,1196.43 488.74,1196.14"/>
    </edge>
    <edge id=":1157398863_8" function="internal">
        <lane id=":1157398863_8_0" index="0" speed="3.65" length="4.67" shape="478.57,1200.50 479.98,1200.20 480.83,1200.47 481.12,1201.32 480.86,1202.74"/>
    </edge>
    <edge id=":1157398872_0" function="internal">
        <lane id=":1157398872_0_0" index="0" speed="8.33" length="0.38" shape="444.52,1177.12 444.20,1176.91"/>
    </edge>
    <edge id=":1157398872_1" function="internal">
        <lane id=":1157398872_1_0" index="0" speed="7.47" length="1.84" shape="444.68,1173.74 445.21,1173.84 445.57,1173.97 445.89,1174.17 446.34,1174.49"/>
    </edge>
    <edge id=":1157398896_0" function="internal">
        <lane id=":1157398896_0_0" index="0" speed="8.33" length="1.67" shape="416.31,1287.84 416.45,1288.31 416.52,1288.65 416.54,1288.99 416.52,1289.48"/>
    </edge>
    <edge id=":1157398896_1" function="internal">
        <lane id=":1157398896_1_0" index="0" speed="8.33" length="0.56" shape="413.32,1289.34 413.33,1289.18 413.32,1289.06 413.30,1288.95 413.25,1288.80"/>
    </edge>
    <edge id=":1157398909_0" function="internal">
        <lane id=":1157398909_0_0" index="0" speed="8.33" length="24.03" shape="547.01,1173.50 544.12,1170.26 539.51,1167.92 533.19,1166.48 525.16,1165.93"/>
    </edge>
    <edge id=":1157398909_1" function="internal">
        <lane id=":1157398909_1_0" index="0" speed="8.33" length="26.02" shape="547.01,1173.50 543.39,1169.53 537.43,1164.92 531.09,1160.73 526.28,1158.03"/>
    </edge>
    <edge id=":1157398909_2" function="internal">
        <lane id=":1157398909_2_0" index="0" speed="7.42" length="16.59" shape="547.01,1173.50 545.21,1168.89 545.64,1165.57 548.31,1163.55 553.20,1162.81"/>
    </edge>
    <edge id=":1157398909_3" function="internal">
        <lane id=":1157398909_3_0" index="0" speed="3.65" length="4.67" shape="547.01,1173.50 547.13,1172.06 547.64,1171.32 548.53,1171.28 549.81,1171.94"/>
    </edge>
    <edge id=":1157398909_4" function="internal">
        <lane id=":1157398909_4_0" index="0" speed="5.70" length="9.21" shape="553.25,1166.01 550.53,1166.42 549.05,1167.54 548.81,1169.38 549.81,1171.94"/>
    </edge>
    <edge id=":1157398909_5" function="internal">
        <lane id=":1157398909_5_0" index="0" speed="8.33" length="28.08" shape="553.25,1166.01 525.16,1165.93"/>
    </edge>
    <edge id=":1157398909_6" function="internal">
        <lane id=":1157398909_6_0" index="0" speed="8.33" length="8.36" shape="553.25,1166.01 547.56,1165.10 545.06,1164.39"/>
    </edge>
    <edge id=":1157398909_7" function="internal">
        <lane id=":1157398909_7_0" index="0" speed="3.65" length="2.34" shape="553.25,1166.01 552.04,1165.23 551.62,1164.44"/>
    </edge>
    <edge id=":1157398909_16" function="internal">
        <lane id=":1157398909_16_0" index="0" speed="8.33" length="19.84" shape="545.06,1164.39 539.59,1162.85 531.70,1160.18 526.28,1158.03"/>
    </edge>
    <edge id=":1157398909_17" function="internal">
        <lane id=":1157398909_17_0" index="0" speed="3.65" length="2.34" shape="551.62,1164.44 552.01,1163.63 553.20,1162.81"/>
    </edge>
    <edge id=":1157398909_8" function="internal">
        <lane id=":1157398909_8_0" index="0" speed="8.33" length="26.77" shape="527.65,1155.13 532.84,1157.24 540.24,1159.80 547.73,1161.94 553.20,1162.81"/>
    </edge>
    <edge id=":1157398909_9" function="internal">
        <lane id=":1157398909_9_0" index="0" speed="8.33" length="27.96" shape="527.65,1155.13 532.68,1158.04 539.51,1162.70 545.96,1167.77 549.81,1171.94"/>
    </edge>
    <edge id=":1157398909_10" function="internal">
        <lane id=":1157398909_10_0" index="0" speed="6.21" length="15.21" shape="527.65,1155.13 530.47,1157.94 530.80,1161.54 528.93,1164.64 525.16,1165.93"/>
    </edge>
    <edge id=":1157398909_11" function="internal">
        <lane id=":1157398909_11_0" index="0" speed="3.65" length="4.67" shape="527.65,1155.13 528.39,1156.37 528.41,1157.26 527.71,1157.81 526.28,1158.03"/>
    </edge>
    <edge id=":1157398909_12" function="internal">
        <lane id=":1157398909_12_0" index="0" speed="5.66" length="12.34" shape="525.20,1162.73 529.52,1162.49 531.14,1161.62 530.06,1160.13 526.28,1158.03"/>
    </edge>
    <edge id=":1157398909_13" function="internal">
        <lane id=":1157398909_13_0" index="0" speed="8.33" length="28.00" shape="525.20,1162.73 553.20,1162.81"/>
    </edge>
    <edge id=":1157398909_14" function="internal">
        <lane id=":1157398909_14_0" index="0" speed="8.33" length="12.98" shape="525.20,1162.73 534.10,1163.39 538.03,1164.37"/>
    </edge>
    <edge id=":1157398909_15" function="internal">
        <lane id=":1157398909_15_0" index="0" speed="3.65" length="2.34" shape="525.20,1162.73 526.39,1163.55 526.78,1164.35"/>
    </edge>
    <edge id=":1157398909_18" function="internal">
        <lane id=":1157398909_18_0" index="0" speed="8.33" length="14.40" shape="538.03,1164.37 541.17,1165.15 546.40,1168.00 549.81,1171.94"/>
    </edge>
    <edge id=":1157398909_19" function="internal">
        <lane id=":1157398909_19_0" index="0" speed="3.65" length="2.34" shape="526.78,1164.35 526.37,1165.15 525.16,1165.93"/>
    </edge>
    <edge id=":1157398921_0" function="internal">
        <lane id=":1157398921_0_0" index="0" speed="8.33" length="0.62" shape="566.42,1194.28 566.25,1194.24 566.12,1194.22 566.00,1194.22 565.81,1194.24"/>
    </edge>
    <edge id=":1157398921_1" function="internal">
        <lane id=":1157398921_1_0" index="0" speed="8.33" length="1.85" shape="565.42,1191.06 565.97,1191.00 566.34,1191.00 566.72,1191.05 567.25,1191.19"/>
    </edge>
    <edge id=":1157398956_0" function="internal">
        <lane id=":1157398956_0_0" index="0" speed="6.90" length="3.35" shape="404.47,1352.77 403.92,1353.59 403.44,1354.10 402.84,1354.44 401.92,1354.77"/>
    </edge>
    <edge id=":1157398956_1" function="internal">
        <lane id=":1157398956_1_0" index="0" speed="4.34" length="1.12" shape="400.91,1351.74 401.21,1351.63 401.42,1351.51 401.57,1351.34 401.76,1351.07"/>
    </edge>
    <edge id=":1157398983_0" function="internal">
        <lane id=":1157398983_0_0" index="0" speed="8.33" length="0.41" shape="869.86,1202.07 869.74,1202.04 869.66,1202.03 869.58,1202.02 869.46,1202.02"/>
    </edge>
    <edge id=":1157398983_1" function="internal">
        <lane id=":1157398983_1_0" index="0" speed="8.33" length="1.23" shape="869.43,1198.82 869.80,1198.82 870.05,1198.84 870.29,1198.88 870.65,1198.97"/>
    </edge>
    <edge id=":1262000590_0" function="internal">
        <lane id=":1262000590_0_0" index="0" speed="8.33" length="0.75" shape="859.58,1134.62 859.37,1134.68 859.22,1134.71 859.07,1134.74 858.85,1134.76"/>
    </edge>
    <edge id=":1262000590_1" function="internal">
        <lane id=":1262000590_1_0" index="0" speed="8.33" length="0.25" shape="858.48,1131.59 858.55,1131.58 858.60,1131.57 858.65,1131.56 858.73,1131.54"/>
    </edge>
    <edge id=":1262000654_0" function="internal">
        <lane id=":1262000654_0_0" index="0" speed="13.89" length="0.27" shape="1427.76,1289.13 1427.75,1289.21 1427.74,1289.27 1427.73,1289.32 1427.73,1289.40"/>
    </edge>
    <edge id=":1262000654_1" function="internal">
        <lane id=":1262000654_1_0" index="0" speed="13.89" length="0.82" shape="1424.53,1289.23 1424.54,1288.99 1424.56,1288.83 1424.59,1288.66 1424.64,1288.43"/>
    </edge>
    <edge id=":1262000671_0" function="internal">
        <lane id=":1262000671_0_0" index="0" speed="8.33" length="0.53" shape="1180.72,1050.17 1180.58,1050.24 1180.48,1050.28 1180.38,1050.32 1180.23,1050.38"/>
    </edge>
    <edge id=":1262000671_1" function="internal">
        <lane id=":1262000671_1_0" index="0" speed="8.33" length="0.18" shape="1179.13,1047.37 1179.18,1047.36 1179.21,1047.34 1179.24,1047.33 1179.29,1047.30"/>
    </edge>
    <edge id=":1262000715_0" function="internal">
        <lane id=":1262000715_0_0" index="0" speed="8.33" length="0.91" shape="558.12,1165.86 557.86,1165.91 557.68,1165.94 557.49,1165.95 557.22,1165.96"/>
    </edge>
    <edge id=":1262000715_1" function="internal">
        <lane id=":1262000715_1_0" index="0" speed="8.33" length="0.30" shape="557.18,1162.76 557.27,1162.76 557.33,1162.75 557.39,1162.74 557.48,1162.73"/>
    </edge>
    <edge id=":1262000738_0" function="internal">
        <lane id=":1262000738_0_0" index="0" speed="12.48" length="1.53" shape="1455.03,1070.18 1454.99,1070.63 1454.93,1070.94 1454.83,1071.24 1454.65,1071.65"/>
    </edge>
    <edge id=":1262000738_1" function="internal">
        <lane id=":1262000738_1_0" index="0" speed="13.89" length="0.51" shape="1451.72,1070.37 1451.78,1070.23 1451.81,1070.13 1451.83,1070.03 1451.85,1069.88"/>
    </edge>
    <edge id=":1262000751_0" function="internal">
        <lane id=":1262000751_0_0" index="0" speed="8.33" length="0.36" shape="1322.39,968.32 1322.13,968.56"/>
    </edge>
    <edge id=":1262000751_1" function="internal">
        <lane id=":1262000751_1_0" index="0" speed="8.33" length="0.12" shape="1320.07,966.10 1320.16,966.02"/>
    </edge>
    <edge id=":1262000806_0" function="internal">
        <lane id=":1262000806_0_0" index="0" speed="8.33" length="0.33" shape="897.78,1124.02 897.69,1124.03 897.62,1124.04 897.55,1124.05 897.46,1124.08"/>
    </edge>
    <edge id=":1262000806_1" function="internal">
        <lane id=":1262000806_1_0" index="0" speed="8.33" length="0.99" shape="896.60,1120.99 896.88,1120.92 897.08,1120.87 897.28,1120.85 897.57,1120.83"/>
    </edge>
    <edge id=":1262000843_0" function="internal">
        <lane id=":1262000843_0_0" index="0" speed="8.33" length="1.32" shape="1338.67,952.24 1338.47,952.58 1338.32,952.80 1338.14,953.00 1337.86,953.28"/>
    </edge>
    <edge id=":1262000843_1" function="internal">
        <lane id=":1262000843_1_0" index="0" speed="8.33" length="0.44" shape="1335.63,950.98 1335.73,950.89 1335.78,950.82 1335.84,950.75 1335.90,950.64"/>
    </edge>
    <edge id=":1262000901_0" function="internal">
        <lane id=":1262000901_0_0" index="0" speed="8.33" length="0.24" shape="1039.83,1097.31 1039.60,1097.38"/>
    </edge>
    <edge id=":1262000901_1" function="internal">