<nodes>
	<node id="1157398751" x="600405.2409" y="4112092.9487" z="0.0000" type="priority" />
	<node id="1157398872" x="600677.1636" y="4112078.4409" z="0.0000" type="priority" />
	<node id="1084417188" x="601651.7888" y="4111120.1708" z="0.0000" type="priority" />
	<node id="1157398475" x="600511.3764" y="4112086.4696" z="0.0000" type="priority" />
	<node id="1262001667" x="601699.5546" y="4111873.5650" z="0.0000" type="priority" />
	<node id="1262001820" x="601456.9830" y="4111927.4398" z="0.0000" type="priority" />
	<node id="1157398635" x="600600.3371" y="4112270.9225" z="0.0000" type="priority" />
	<node id="1157398518" x="600232.3519" y="4112141.0428" z="0.0000" type="priority" />
	<node id="1262000738" x="601685.7434" y="4111973.6047" z="0.0000" type="priority" />
	<node id="1908285532" x="601584.1770" y="4112411.8628" z="0.0000" type="priority" />
	<node id="1908285536" x="601592.1146" y="4112399.5534" z="0.0000" type="priority" />
	<node id="1262001794" x="600970.3822" y="4112053.9111" z="0.0000" type="priority" />
	<node id="1908285538" x="601631.1708" y="4112346.9643" z="0.0000" type="priority" />
	<node id="1262000901" x="601271.6082" y="4111998.8745" z="0.0000" type="priority" />
	<node id="1157398125" x="600844.9616" y="4112107.9987" z="0.0000" type="priority" />
	<node id="7391808756" x="601391.4646" y="4111959.5279" z="0.0000" type="priority" />
	<node id="1157398646" x="600702.2198" y="4112114.8127" z="0.0000" type="priority" />
	<node id="1157398921" x="600798.5863" y="4112095.6378" z="0.0000" type="priority" />
	<node id="1084416646" x="601664.7992" y="4111464.2535" z="0.0000" type="priority" />
	<node id="1157398648" x="600777.7345" y="4112087.9763" z="0.0000" type="priority" />
	<node id="6230820379" x="601294.9201" y="4112016.8747" z="0.0000" type="priority" />
	<node id="1908285520" x="601579.4406" y="4112423.1235" z="0.0000" type="priority" />
	<node id="1262001443" x="601223.4708" y="4112007.4944" z="0.0000" type="priority" />
	<node id="1908285525" x="601655.7306" y="4112279.8202" z="0.0000" type="priority" />
	<node id="1262001562" x="601517.9330" y="4111900.0683" z="0.0000" type="priority" />
	<node id="1972778008" x="601724.3958" y="4111784.7322" z="0.0000" type="priority" />
	<node id="1262000590" x="601091.2644" y="4112036.2095" z="0.0000" type="priority" />
	<node id="1262001967" x="600884.8497" y="4112061.2970" z="0.0000" type="priority" />
	<node id="1157398377" x="600781.7494" y="4112077.5610" z="0.0000" type="priority" />
	<node id="1157398498" x="600667.1279" y="4112140.8013" z="0.0000" type="priority" />
	<node id="1262001845" x="601166.6613" y="4112023.0562" z="0.0000" type="priority" />
	<node id="6230823290" x="601661.6238" y="4112121.9422" z="0.0000" type="priority" />
	<node id="1157398137" x="600266.8134" y="4112114.1684" z="0.0000" type="priority" />
	<node id="1157398896" x="600647.2970" y="4112191.9156" z="0.0000" type="priority" />
	<node id="1262000996" x="600816.9053" y="4112061.8595" z="0.0000" type="priority" />
	<node id="1262001722" x="601245.7898" y="4112006.8749" z="0.0000" type="priority" />
	<node id="448755898" x="601661.9662" y="4110992.9913" z="0.0000" type="priority" />
	<node id="1262000751" x="601553.5448" y="4111870.3169" z="0.0000" type="priority" />
	<node id="448755896" x="601650.3002" y="4111395.2624" z="0.0000" type="priority" />
	<node id="1157398779" x="600694.9086" y="4112116.4230" z="0.0000" type="priority" />
	<node id="448755897" x="601646.9898" y="4111242.5995" z="0.0000" type="priority" />
	<node id="448755894" x="601653.6646" y="4112049.9008" z="0.0000" type="priority" />
	<node id="448755895" x="601746.3800" y="4111663.3209" z="0.0000" type="priority" />
	<node id="448755893" x="601667.4067" y="4112152.7918" z="0.0000" type="priority" />
	<node id="1262001050" x="601316.2516" y="4111986.1074" z="0.0000" type="priority" />
	<node id="1908285510" x="601576.0090" y="4112437.3846" z="0.0000" type="priority" />
	<node id="1908285512" x="601572.6816" y="4112588.8470" z="0.0000" type="priority" />
	<node id="1908285513" x="601578.5053" y="4112427.0290" z="0.0000" type="priority" />
	<node id="1157398261" x="601033.7592" y="4112110.5605" z="0.0000" type="priority" />
	<node id="1157398821" x="600638.8620" y="4112164.9298" z="0.0000" type="priority" />
	<node id="1084417038" x="601646.3289" y="4111323.9017" z="0.0000" type="priority" />
	<node id="1157398666" x="600709.7310" y="4112100.9329" z="0.0000" type="priority" />
	<node id="1262000806" x="601129.7007" y="4112025.5084" z="0.0000" type="priority" />
	<node id="1157398826" x="600748.4713" y="4111931.0537" z="0.0000" type="priority" />
	<node id="1262001618" x="600942.8964" y="4112055.0797" z="0.0000" type="priority" />
	<node id="1908285505" x="601644.5215" y="4112326.9643" z="0.0000" type="priority" />
	<node id="1262001341" x="601070.5585" y="4112038.6019" z="0.0000" type="priority" />
	<node id="1262001186" x="601668.9367" y="4112012.0265" z="0.0000" type="priority" />
	<node id="1157398790" x="601122.3352" y="4112108.5720" z="0.0000" type="priority" />
	<node id="1908285508" x="601572.9158" y="4112507.5617" z="0.0000" type="priority" />
	<node id="1157398397" x="600760.5247" y="4112100.3309" z="0.0000" type="priority" />
	<node id="1262001988" x="601608.4488" y="4111808.1655" z="0.0000" type="priority" />
	<node id="1157398797" x="600652.5774" y="4112074.8183" z="0.0000" type="priority" />
	<node id="1262000654" x="601658.4944" y="4112192.1078" z="0.0000" type="priority" />
	<node id="1262001226" x="601487.6670" y="4111912.2531" z="0.0000" type="priority" />
	<node id="1262001863" x="601583.8758" y="4111829.9276" z="0.0000" type="priority" />
	<node id="1262001741" x="601676.2128" y="4111771.2239" z="0.0000" type="priority" />
	<node id="1157398835" x="600893.4934" y="4112118.2665" z="0.0000" type="priority" />
	<node id="1157398956" x="600634.8524" y="4112255.9561" z="0.0000" type="priority" />
	<node id="1262001905" x="600838.4003" y="4112059.5647" z="0.0000" type="priority" />
	<node id="1262001872" x="601576.8100" y="4112432.8339" z="0.0000" type="priority" />
	<node id="1972777747" x="601725.5239" y="4111771.4863" z="0.0000" type="priority" />
	<node id="1262001991" x="601687.3360" y="4111907.1489" z="0.0000" type="priority" />
	<node id="1157398563" x="600733.7769" y="4111824.3806" z="0.0000" type="priority" />
	<node id="1157398444" x="600641.7968" y="4112244.8989" z="0.0000" type="priority" />
	<node id="6230823285" x="601567.6881" y="4112077.0916" z="0.0000" type="priority" />
	<node id="1262001753" x="601656.1931" y="4112235.6089" z="0.0000" type="priority" />
	<node id="1084416963" x="601743.3662" y="4111637.7974" z="0.0000" type="priority" />
	<node id="1157398844" x="600293.6228" y="4112101.8938" z="0.0000" type="priority" />
	<node id="1157398726" x="600646.2882" y="4112215.3933" z="0.0000" type="priority" />
	<node id="1157398607" x="600337.2872" y="4112095.8229" z="0.0000" type="priority" />
	<node id="991066387" x="601720.8055" y="4111826.8197" z="0.0000" type="priority" />
	<node id="6230823288" x="601641.6094" y="4112111.1930" z="0.0000" type="priority" />
	<node id="1262001761" x="601439.8375" y="4111938.0296" z="0.0000" type="priority" />
	<node id="6230823289" x="601651.0092" y="4112121.2704" z="0.0000" type="priority" />
	<node id="1262000671" x="601412.1986" y="4111951.8773" z="0.0000" type="priority" />
	<node id="6230823286" x="601609.9469" y="4112088.9855" z="0.0000" type="priority" />
	<node id="1157398170" x="600618.0079" y="4112261.5690" z="0.0000" type="priority" />
	<node id="1262001880" x="601199.9096" y="4112017.6192" z="0.0000" type="priority" />
	<node id="6230823287" x="601629.8748" y="4112095.8723" z="0.0000" type="priority" />
	<node id="6378477447" x="601645.6667" y="4110903.0629" z="0.0000" type="priority" />
	<node id="1157398052" x="600578.0362" y="4112078.1666" z="0.0000" type="priority" />
	<node id="6230820574" x="600717.6518" y="4112071.3686" z="0.0000" type="priority" />
	<node id="6230820573" x="600674.5214" y="4112078.0542" z="0.0000" type="priority" />
	<node id="6230820575" x="600756.9485" y="4112067.3891" z="0.0000" type="priority" />
	<node id="1084416790" x="601689.4664" y="4111517.9554" z="0.0000" type="priority" />
	<node id="1262001923" x="601366.1181" y="4111968.8874" z="0.0000" type="priority" />
	<node id="6230820381" x="601396.3851" y="4112058.4287" z="0.0000" type="priority" />
	<node id="1084417126" x="601733.8139" y="4111611.6290" z="0.0000" type="priority" />
	<node id="6230820380" x="601341.4119" y="4112033.5672" z="0.0000" type="priority" />
	<node id="1157398855" x="600605.7810" y="4112266.5049" z="0.0000" type="priority" />
	<node id="1157398738" x="600755.1285" y="4112057.6696" z="0.0000" type="priority" />
	<node id="1262000715" x="600789.8556" y="4112067.4166" z="0.0000" type="priority" />
	<node id="1908285550" x="601651.0983" y="4112308.9353" z="0.0000" type="priority" />
	<node id="1908285553" x="601573.0532" y="4112459.3409" z="0.0000" type="priority" />
	<node id="6230820383" x="601462.9816" y="4112067.2972" z="0.0000" type="priority" />
	<node id="6230820382" x="601431.5614" y="4112065.4874" z="0.0000" type="priority" />
	<node id="1262001650" x="601648.1335" y="4111783.2126" z="0.0000" type="priority" />
	<node id="6230820384" x="601522.8458" y="4112081.3001" z="0.0000" type="priority" />
	<node id="1157398581" x="600950.7612" y="4112109.5655" z="0.0000" type="priority" />
	<node id="1157398464" x="601070.0259" y="4112103.7278" z="0.0000" type="priority" />
	<node id="1262000843" x="601569.4167" y="4111854.8853" z="0.0000" type="priority" />
	<node id="1157398104" x="600641.1858" y="4112154.0504" z="0.0000" type="priority" />
	<node id="1157398863" x="600715.7804" y="4112100.8610" z="0.0000" type="priority" />
	<node id="1262001535" x="601688.4489" y="4111945.1988" z="0.0000" type="priority" />
	<node id="1157398983" x="601102.2079" y="4112103.4815" z="0.0000" type="priority" />
	<node id="1262001136" x="601017.2903" y="4112052.2099" z="0.0000" type="priority" />
	<node id="1262001815" x="601653.7218" y="4112079.7493" z="0.0000" type="priority" />
	<node id="1157398909" x="600776.2284" y="4112067.6086" z="0.0000" type="priority" />
	<node id="1972777418" x="601729.8270" y="4111721.1299" z="0.0000" type="priority" />
</nodes>
